# generated using pymatgen
data_BeH6CI3N
_symmetry_space_group_name_H-M   'P 1'
_cell_length_a   6.85334159
_cell_length_b   12.96724305
_cell_length_c   8.99908494
_cell_angle_alpha   90.00452073
_cell_angle_beta   89.95208356
_cell_angle_gamma   89.99196594
_symmetry_Int_Tables_number   1
_chemical_formula_structural   BeH6CI3N
_chemical_formula_sum   'Be4 H24 C4 I12 N4'
_cell_volume   799.73890351
_cell_formula_units_Z   4
loop_
 _symmetry_equiv_pos_site_id
 _symmetry_equiv_pos_as_xyz
  1  'x, y, z'
loop_
 _atom_site_type_symbol
 _atom_site_label
 _atom_site_symmetry_multiplicity
 _atom_site_fract_x
 _atom_site_fract_y
 _atom_site_fract_z
 _atom_site_occupancy
  C  C0  1  0.21172504  0.26092132  0.33552528  1
  C  C1  1  0.71200083  0.26060235  0.16311878  1
  C  C2  1  0.78827272  0.76104765  0.66447443  1
  C  C3  1  0.28800594  0.76078325  0.83689068  1
  N  N4  1  0.30567777  0.26127502  0.48388705  1
  N  N5  1  0.80433487  0.26127639  0.01408432  1
  N  N6  1  0.69421012  0.76133532  0.51613461  1
  N  N7  1  0.19586380  0.76112566  0.98599534  1
  H  H8  1  0.32315436  0.26052222  0.24849499  1
  H  H9  1  0.12113095  0.19162698  0.32659898  1
  H  H10  1  0.12320916  0.33084621  0.32535719  1
  H  H11  1  0.38222766  0.19334704  0.50511765  1
  H  H12  1  0.40076615  0.32316503  0.49516060  1
  H  H13  1  0.20076135  0.26682098  0.56716063  1
  H  H14  1  0.82436474  0.26073458  0.24929974  1
  H  H15  1  0.62255719  0.19093729  0.17278100  1
  H  H16  1  0.62254603  0.33017359  0.17393335  1
  H  H17  1  0.88121668  0.19352005  0.99226416  1
  H  H18  1  0.89877877  0.32337866  0.00217767  1
  H  H19  1  0.69842507  0.26659869  0.93162000  1
  H  H20  1  0.67692250  0.76070881  0.75153000  1
  H  H21  1  0.87890844  0.69175186  0.67340996  1
  H  H22  1  0.87678983  0.83097534  0.67454171  1
  H  H23  1  0.59912054  0.82323400  0.50487461  1
  H  H24  1  0.61767826  0.69341958  0.49498263  1
  H  H25  1  0.79907420  0.76684636  0.43280860  1
  H  H26  1  0.17551670  0.76089891  0.75078301  1
  H  H27  1  0.37710435  0.83047438  0.82621990  1
  H  H28  1  0.37776531  0.69123522  0.82692763  1
  H  H29  1  0.10112196  0.82308512  0.99816689  1
  H  H30  1  0.11934889  0.69324268  0.00767008  1
  H  H31  1  0.30185405  0.76647152  0.06838109  1
  Be  Be32  1  0.71789674  0.92635072  0.12814687  1
  Be  Be33  1  0.78232451  0.42620471  0.62719337  1
  Be  Be34  1  0.21757059  0.92617861  0.37277124  1
  Be  Be35  1  0.28205471  0.42633216  0.87183164  1
  I  I36  1  0.30013712  0.24382575  0.88338817  1
  I  I37  1  0.38307452  0.99536804  0.14764426  1
  I  I38  1  0.88286884  0.99520030  0.35339975  1
  I  I39  1  0.80057862  0.24372944  0.61556338  1
  I  I40  1  0.36752001  0.99657170  0.58789984  1
  I  I41  1  0.86817570  0.99660731  0.91289077  1
  I  I42  1  0.70001837  0.74383436  0.11663134  1
  I  I43  1  0.63244771  0.49657448  0.41203175  1
  I  I44  1  0.13174119  0.49656154  0.08714332  1
  I  I45  1  0.19940921  0.74370906  0.38445580  1
  I  I46  1  0.11701132  0.49520457  0.64662454  1
  I  I47  1  0.61676035  0.49544348  0.85230799  1
