# generated using pymatgen
data_GaH6CI3N
_symmetry_space_group_name_H-M   'P 1'
_cell_length_a   8.56012414
_cell_length_b   10.66878253
_cell_length_c   9.56755772
_cell_angle_alpha   89.80220319
_cell_angle_beta   89.99975443
_cell_angle_gamma   90.00462044
_symmetry_Int_Tables_number   1
_chemical_formula_structural   GaH6CI3N
_chemical_formula_sum   'Ga4 H24 C4 I12 N4'
_cell_volume   873.76255090
_cell_formula_units_Z   4
loop_
 _symmetry_equiv_pos_site_id
 _symmetry_equiv_pos_as_xyz
  1  'x, y, z'
loop_
 _atom_site_type_symbol
 _atom_site_label
 _atom_site_symmetry_multiplicity
 _atom_site_fract_x
 _atom_site_fract_y
 _atom_site_fract_z
 _atom_site_occupancy
  C  C0  1  0.48806228  0.24100025  0.43361838  1
  C  C1  1  0.99568629  0.24965482  0.06289149  1
  C  C2  1  0.50421124  0.74986753  0.56286651  1
  C  C3  1  0.01215850  0.74118276  0.93344957  1
  N  N4  1  0.54203636  0.24735452  0.58114199  1
  N  N5  1  0.05294454  0.26981584  0.91785974  1
  N  N6  1  0.44722064  0.76962242  0.41768483  1
  N  N7  1  0.95798195  0.74721832  0.08093226  1
  H  H8  1  0.58907696  0.22671925  0.36538360  1
  H  H9  1  0.40563529  0.16304959  0.42242732  1
  H  H10  1  0.42918159  0.32938525  0.40826530  1
  H  H11  1  0.59038231  0.16380024  0.61664019  1
  H  H12  1  0.62669993  0.31662464  0.59788096  1
  H  H13  1  0.44961295  0.27118139  0.64670005  1
  H  H14  1  0.09453801  0.22300162  0.12910000  1
  H  H15  1  0.90870013  0.17428692  0.06266230  1
  H  H16  1  0.94253465  0.33657192  0.10062171  1
  H  H17  1  0.09517493  0.18783479  0.87330428  1
  H  H18  1  0.14416997  0.33398666  0.91174958  1
  H  H19  1  0.96475582  0.30648136  0.85336535  1
  H  H20  1  0.40520799  0.72352819  0.62905411  1
  H  H21  1  0.59106177  0.67440888  0.56304909  1
  H  H22  1  0.55746232  0.83685320  0.60031342  1
  H  H23  1  0.35613729  0.83389796  0.41115980  1
  H  H24  1  0.40491238  0.68754234  0.37340565  1
  H  H25  1  0.53557543  0.80599062  0.35317183  1
  H  H26  1  0.91121117  0.72721567  0.86505243  1
  H  H27  1  0.07126900  0.82955973  0.90845922  1
  H  H28  1  0.09442565  0.66315510  0.92208700  1
  H  H29  1  0.87346134  0.81657336  0.09779631  1
  H  H30  1  0.90938938  0.66364210  0.11610496  1
  H  H31  1  0.05035797  0.77072363  0.14667789  1
  Ga  Ga32  1  0.49020647  0.98851310  0.02482283  1
  Ga  Ga33  1  0.00958846  0.48856237  0.52481771  1
  Ga  Ga34  1  0.00280010  0.00512866  0.59404116  1
  Ga  Ga35  1  0.49700396  0.50509390  0.09399659  1
  I  I36  1  0.50242796  0.27511705  0.99867078  1
  I  I37  1  0.22843124  0.97036583  0.19914763  1
  I  I38  1  0.71153583  0.96849357  0.24346626  1
  I  I39  1  0.98241762  0.21278315  0.44772977  1
  I  I40  1  0.26911979  0.02010828  0.73162818  1
  I  I41  1  0.77470840  0.01860652  0.77826779  1
  I  I42  1  0.51730827  0.71276734  0.94769549  1
  I  I43  1  0.72514869  0.51856638  0.27817822  1
  I  I44  1  0.23068035  0.51997772  0.23161710  1
  I  I45  1  0.99729377  0.77515848  0.49870989  1
  I  I46  1  0.27156299  0.47049262  0.69888422  1
  I  I47  1  0.78855380  0.46861243  0.74374585  1
