# generated using pymatgen
data_AlTlH12C2(I3N)2
_symmetry_space_group_name_H-M   'P 1'
_cell_length_a   8.49362900
_cell_length_b   12.20873997
_cell_length_c   8.32803238
_cell_angle_alpha   86.31467618
_cell_angle_beta   90.00007994
_cell_angle_gamma   90.03455554
_symmetry_Int_Tables_number   1
_chemical_formula_structural   AlTlH12C2(I3N)2
_chemical_formula_sum   'Al2 Tl2 H24 C4 I12 N4'
_cell_volume   861.80191781
_cell_formula_units_Z   2
loop_
 _symmetry_equiv_pos_site_id
 _symmetry_equiv_pos_as_xyz
  1  'x, y, z'
loop_
 _atom_site_type_symbol
 _atom_site_label
 _atom_site_symmetry_multiplicity
 _atom_site_fract_x
 _atom_site_fract_y
 _atom_site_fract_z
 _atom_site_occupancy
  C  C0  1  0.39758801  0.24971016  0.41440699  1
  C  C1  1  0.89863374  0.25037579  0.08660883  1
  C  C2  1  0.60240880  0.75029283  0.58560788  1
  C  C3  1  0.10137306  0.74962590  0.91340186  1
  N  N4  1  0.53838821  0.24791966  0.51993219  1
  N  N5  1  0.03883504  0.25209236  0.98026919  1
  N  N6  1  0.46160622  0.75208558  0.48008456  1
  N  N7  1  0.96117173  0.74790627  0.01974136  1
  H  H8  1  0.43639173  0.25216061  0.28880438  1
  H  H9  1  0.32906512  0.17503007  0.44270591  1
  H  H10  1  0.32773162  0.32241619  0.43627351  1
  H  H11  1  0.60761819  0.18034937  0.49868647  1
  H  H12  1  0.60633155  0.31831434  0.49578580  1
  H  H13  1  0.50877066  0.24346329  0.64209834  1
  H  H14  1  0.93817012  0.24795126  0.21196927  1
  H  H15  1  0.82844169  0.17766897  0.06522853  1
  H  H16  1  0.83016982  0.32507530  0.05872097  1
  H  H17  1  0.10672238  0.18169739  0.00409821  1
  H  H18  1  0.10836034  0.31966748  0.00107756  1
  H  H19  1  0.00859404  0.25652301  0.85827253  1
  H  H20  1  0.56360634  0.74784372  0.71121110  1
  H  H21  1  0.67226258  0.67758668  0.56374094  1
  H  H22  1  0.67093255  0.82497262  0.55730753  1
  H  H23  1  0.39237788  0.81965477  0.50133119  1
  H  H24  1  0.39366332  0.68168980  0.50423058  1
  H  H25  1  0.49122374  0.75654171  0.35791786  1
  H  H26  1  0.06183708  0.75205248  0.78804115  1
  H  H27  1  0.17156436  0.82233265  0.93478556  1
  H  H28  1  0.16983782  0.67492643  0.94128680  1
  H  H29  1  0.89328192  0.81830006  0.99591440  1
  H  H30  1  0.89164875  0.68032992  0.99893177  1
  H  H31  1  0.99141250  0.74347494  0.14173822  1
  Al  Al32  1  0.50000358  0.00000431  0.00000951  1
  Al  Al33  1  0.99999570  0.50000178  0.49999964  1
  Tl  Tl34  1  0.00000252  0.00000222  0.50000860  1
  Tl  Tl35  1  0.49999822  0.50000755  0.99999570  1
  I  I36  1  0.47627316  0.22750099  0.94263564  1
  I  I37  1  0.20948554  0.00153340  0.15430488  1
  I  I38  1  0.65127931  0.01866450  0.29507323  1
  I  I39  1  0.97568863  0.27252719  0.55779323  1
  I  I40  1  0.34872588  0.98134310  0.70494664  1
  I  I41  1  0.79052114  0.99847123  0.84571376  1
  I  I42  1  0.52373447  0.77250751  0.05738374  1
  I  I43  1  0.70965463  0.49830679  0.34535111  1
  I  I44  1  0.15160055  0.48139628  0.20510569  1
  I  I45  1  0.02430440  0.72747665  0.44221482  1
  I  I46  1  0.29033865  0.50169623  0.65465041  1
  I  I47  1  0.84839641  0.51860696  0.79489859  1
