# generated using pymatgen
data_YInH10C2(I3N2)2
_symmetry_space_group_name_H-M   'P 1'
_cell_length_a   8.72294324
_cell_length_b   12.43401572
_cell_length_c   8.71663304
_cell_angle_alpha   89.98765408
_cell_angle_beta   89.99951899
_cell_angle_gamma   89.99966691
_symmetry_Int_Tables_number   1
_chemical_formula_structural   YInH10C2(I3N2)2
_chemical_formula_sum   'Y2 In2 H20 C4 I12 N8'
_cell_volume   945.41657429
_cell_formula_units_Z   2
loop_
 _symmetry_equiv_pos_site_id
 _symmetry_equiv_pos_as_xyz
  1  'x, y, z'
loop_
 _atom_site_type_symbol
 _atom_site_label
 _atom_site_symmetry_multiplicity
 _atom_site_fract_x
 _atom_site_fract_y
 _atom_site_fract_z
 _atom_site_occupancy
  C  C0  1  0.49286419  0.28871216  0.49632312  1
  C  C1  1  0.99294250  0.21127488  0.00370120  1
  C  C2  1  0.50729032  0.78873169  0.50346218  1
  C  C3  1  0.00719334  0.71127277  0.99651108  1
  N  N4  1  0.59002250  0.24044996  0.58863088  1
  N  N5  1  0.39907085  0.24026198  0.40095994  1
  N  N6  1  0.09013538  0.25953733  0.91143748  1
  N  N7  1  0.89911541  0.25971969  0.09904098  1
  N  N8  1  0.60006590  0.74026887  0.59987312  1
  N  N9  1  0.41103571  0.74049121  0.41027617  1
  N  N10  1  0.10001542  0.75974355  0.90012818  1
  N  N11  1  0.91091334  0.75950686  0.08965183  1
  H  H12  1  0.48954037  0.37640173  0.49951200  1
  H  H13  1  0.65815177  0.28544050  0.65880669  1
  H  H14  1  0.59968666  0.15876122  0.59499670  1
  H  H15  1  0.32788162  0.28558316  0.33405283  1
  H  H16  1  0.39484786  0.15865128  0.38859015  1
  H  H17  1  0.98961387  0.12358502  0.00049701  1
  H  H18  1  0.15830110  0.21454807  0.84129849  1
  H  H19  1  0.09983503  0.34122423  0.90511294  1
  H  H20  1  0.82789862  0.21439594  0.16591480  1
  H  H21  1  0.89489451  0.34133170  0.11142207  1
  H  H22  1  0.51066332  0.87642401  0.50026583  1
  H  H23  1  0.67068144  0.78554501  0.66738704  1
  H  H24  1  0.60696504  0.65857928  0.60958114  1
  H  H25  1  0.34333738  0.78552082  0.33968192  1
  H  H26  1  0.39841009  0.65889408  0.40690261  1
  H  H27  1  0.01057358  0.62358182  0.99968838  1
  H  H28  1  0.17065572  0.71447431  0.83263654  1
  H  H29  1  0.10690881  0.84143650  0.89043867  1
  H  H30  1  0.84317169  0.71447558  0.16020125  1
  H  H31  1  0.89825919  0.84110167  0.09301030  1
  Y  Y32  1  0.49959038  0.99990045  0.99911107  1
  Y  Y33  1  0.99959133  0.50012635  0.50091623  1
  In  In34  1  0.99974877  0.00016891  0.49882503  1
  In  In35  1  0.49974210  0.49986648  0.00119611  1
  I  I36  1  0.49826054  0.23910946  0.99277803  1
  I  I37  1  0.20805209  0.98498513  0.18448245  1
  I  I38  1  0.68373927  0.02168004  0.29200111  1
  I  I39  1  0.99824951  0.26091650  0.50728352  1
  I  I40  1  0.31468802  0.01398834  0.70692533  1
  I  I41  1  0.79302872  0.97927433  0.81533020  1
  I  I42  1  0.50244822  0.76076084  0.00709984  1
  I  I43  1  0.70803009  0.51497847  0.31555489  1
  I  I44  1  0.18371608  0.47834239  0.20800365  1
  I  I45  1  0.00246763  0.73926139  0.49283266  1
  I  I46  1  0.29304243  0.52077418  0.68467224  1
  I  I47  1  0.81468161  0.48600284  0.79309886  1
