# generated using pymatgen
data_YAgH10C2(I3N2)2
_symmetry_space_group_name_H-M   'P 1'
_cell_length_a   8.57975229
_cell_length_b   11.78597603
_cell_length_c   8.57326947
_cell_angle_alpha   89.92985638
_cell_angle_beta   89.99946548
_cell_angle_gamma   90.00084180
_symmetry_Int_Tables_number   1
_chemical_formula_structural   YAgH10C2(I3N2)2
_chemical_formula_sum   'Y2 Ag2 H20 C4 I12 N8'
_cell_volume   866.93483143
_cell_formula_units_Z   2
loop_
 _symmetry_equiv_pos_site_id
 _symmetry_equiv_pos_as_xyz
  1  'x, y, z'
loop_
 _atom_site_type_symbol
 _atom_site_label
 _atom_site_symmetry_multiplicity
 _atom_site_fract_x
 _atom_site_fract_y
 _atom_site_fract_z
 _atom_site_occupancy
  C  C0  1  0.49380487  0.28880383  0.49601606  1
  C  C1  1  0.99387792  0.21118709  0.00398927  1
  C  C2  1  0.50654959  0.78883645  0.50370182  1
  C  C3  1  0.00648581  0.71116297  0.99628595  1
  N  N4  1  0.59267939  0.23866689  0.59024526  1
  N  N5  1  0.39847715  0.23781694  0.39933775  1
  N  N6  1  0.09276449  0.26132813  0.90980627  1
  N  N7  1  0.89851776  0.26217384  0.10067393  1
  N  N8  1  0.60060817  0.73786544  0.60172336  1
  N  N9  1  0.40865577  0.73869996  0.40856049  1
  N  N10  1  0.10057238  0.76214594  0.89827585  1
  N  N11  1  0.90856572  0.76129589  0.09139883  1
  H  H12  1  0.49025235  0.38118111  0.49851364  1
  H  H13  1  0.66109328  0.28740343  0.66101609  1
  H  H14  1  0.60534883  0.15273007  0.59778442  1
  H  H15  1  0.32675464  0.28644446  0.33139345  1
  H  H16  1  0.39101780  0.15179907  0.38733304  1
  H  H17  1  0.99030538  0.11881177  0.00148322  1
  H  H18  1  0.16120233  0.21259530  0.83904290  1
  H  H19  1  0.10546863  0.34726659  0.90229852  1
  H  H20  1  0.82678461  0.21354136  0.16859009  1
  H  H21  1  0.89107638  0.34818702  0.11268510  1
  H  H22  1  0.51032059  0.88121267  0.50071642  1
  H  H23  1  0.67196547  0.78645800  0.66997117  1
  H  H24  1  0.60767250  0.65186089  0.61442481  1
  H  H25  1  0.34053470  0.78746584  0.33740854  1
  H  H26  1  0.39567521  0.65276669  0.40164303  1
  H  H27  1  0.01027081  0.61879431  0.99926585  1
  H  H28  1  0.17193966  0.71355967  0.83004767  1
  H  H29  1  0.10762538  0.84815133  0.88558259  1
  H  H30  1  0.84042578  0.71252148  0.16252423  1
  H  H31  1  0.89555460  0.84722674  0.09830215  1
  Y  Y32  1  0.49881887  0.99995967  0.99825712  1
  Y  Y33  1  0.99881663  0.50005862  0.50175848  1
  Ag  Ag34  1  0.99969523  0.00009045  0.49831243  1
  Ag  Ag35  1  0.49968731  0.49993247  0.00170532  1
  I  I36  1  0.49834517  0.25220362  0.99554923  1
  I  I37  1  0.21382558  0.98855497  0.20659155  1
  I  I38  1  0.70876321  0.01283107  0.28328787  1
  I  I39  1  0.99829919  0.24781312  0.50448734  1
  I  I40  1  0.29196299  0.01084052  0.71199243  1
  I  I41  1  0.78501162  0.98773683  0.78964660  1
  I  I42  1  0.50218696  0.74776568  0.00414818  1
  I  I43  1  0.71381915  0.51144548  0.29341960  1
  I  I44  1  0.20875082  0.48717723  0.21671126  1
  I  I45  1  0.00222696  0.75225060  0.49581975  1
  I  I46  1  0.28501062  0.51227957  0.71035992  1
  I  I47  1  0.79195103  0.48916190  0.78801588  1
