# generated using pymatgen
data_ZrHgH10C2(I3N2)2
_symmetry_space_group_name_H-M   'P 1'
_cell_length_a   8.68953788
_cell_length_b   12.37588603
_cell_length_c   8.68238223
_cell_angle_alpha   89.91137791
_cell_angle_beta   89.99941279
_cell_angle_gamma   90.00177387
_symmetry_Int_Tables_number   1
_chemical_formula_structural   ZrHgH10C2(I3N2)2
_chemical_formula_sum   'Zr2 Hg2 H20 C4 I12 N8'
_cell_volume   933.70860901
_cell_formula_units_Z   2
loop_
 _symmetry_equiv_pos_site_id
 _symmetry_equiv_pos_as_xyz
  1  'x, y, z'
loop_
 _atom_site_type_symbol
 _atom_site_label
 _atom_site_symmetry_multiplicity
 _atom_site_fract_x
 _atom_site_fract_y
 _atom_site_fract_z
 _atom_site_occupancy
  C  C0  1  0.49318119  0.28849658  0.49610428  1
  C  C1  1  0.99325999  0.21148906  0.00391579  1
  C  C2  1  0.50725296  0.78854334  0.50345583  1
  C  C3  1  0.00715756  0.71145847  0.99652928  1
  N  N4  1  0.59110003  0.24020185  0.58861063  1
  N  N5  1  0.39855247  0.24002364  0.40062860  1
  N  N6  1  0.09120765  0.25979364  0.91145285  1
  N  N7  1  0.89859368  0.25995907  0.09937749  1
  N  N8  1  0.60012301  0.73998151  0.60079330  1
  N  N9  1  0.41080074  0.74034741  0.40957153  1
  N  N10  1  0.10009384  0.76003066  0.89919356  1
  N  N11  1  0.91070185  0.75965425  0.09034157  1
  H  H12  1  0.48973442  0.37659475  0.49916303  1
  H  H13  1  0.65929080  0.28583550  0.65861090  1
  H  H14  1  0.60097274  0.15817734  0.59641145  1
  H  H15  1  0.32710854  0.28602995  0.33397016  1
  H  H16  1  0.39405082  0.15809685  0.38733933  1
  H  H17  1  0.98980145  0.12339428  0.00084915  1
  H  H18  1  0.15943263  0.21415928  0.84148445  1
  H  H19  1  0.10111883  0.34181363  0.90368935  1
  H  H20  1  0.82712883  0.21394786  0.16600595  1
  H  H21  1  0.89410440  0.34188422  0.11267401  1
  H  H22  1  0.51086017  0.87664233  0.50009141  1
  H  H23  1  0.67047646  0.78588443  0.66848666  1
  H  H24  1  0.60801175  0.65796643  0.61087985  1
  H  H25  1  0.34339265  0.78607405  0.33870731  1
  H  H26  1  0.39690818  0.65842442  0.40602988  1
  H  H27  1  0.01078163  0.62336265  0.99987538  1
  H  H28  1  0.17045212  0.71414299  0.83154052  1
  H  H29  1  0.10795963  0.84204813  0.88912866  1
  H  H30  1  0.84322546  0.71390783  0.16119397  1
  H  H31  1  0.89676008  0.84156715  0.09388067  1
  Zr  Zr32  1  0.49878497  0.99990164  0.99915711  1
  Zr  Zr33  1  0.99878543  0.50011967  0.50087125  1
  Hg  Hg34  1  0.99878064  0.00016252  0.49911795  1
  Hg  Hg35  1  0.49877286  0.49986979  0.00091050  1
  I  I36  1  0.49893293  0.22852963  0.99324617  1
  I  I37  1  0.22017987  0.98567050  0.17703587  1
  I  I38  1  0.67677489  0.01960204  0.27894931  1
  I  I39  1  0.99891785  0.27149284  0.50680261  1
  I  I40  1  0.32237516  0.01229424  0.71920225  1
  I  I41  1  0.77969783  0.98224639  0.82236966  1
  I  I42  1  0.50269797  0.77133221  0.00664738  1
  I  I43  1  0.72016191  0.51430365  0.32300546  1
  I  I44  1  0.17675238  0.48041096  0.22105505  1
  I  I45  1  0.00272786  0.72868493  0.49328781  1
  I  I46  1  0.27970543  0.51779814  0.67763638  1
  I  I47  1  0.82237481  0.48771032  0.78082322  1
