# generated using pymatgen
data_ZrH10PtC2(I3N2)2
_symmetry_space_group_name_H-M   'P 1'
_cell_length_a   8.77284039
_cell_length_b   10.48750784
_cell_length_c   8.85340196
_cell_angle_alpha   90.29038099
_cell_angle_beta   90.00630400
_cell_angle_gamma   90.00002364
_symmetry_Int_Tables_number   1
_chemical_formula_structural   ZrH10PtC2(I3N2)2
_chemical_formula_sum   'Zr2 H20 Pt2 C4 I12 N8'
_cell_volume   814.54883859
_cell_formula_units_Z   2
loop_
 _symmetry_equiv_pos_site_id
 _symmetry_equiv_pos_as_xyz
  1  'x, y, z'
loop_
 _atom_site_type_symbol
 _atom_site_label
 _atom_site_symmetry_multiplicity
 _atom_site_fract_x
 _atom_site_fract_y
 _atom_site_fract_z
 _atom_site_occupancy
  C  C0  1  0.50409652  0.28911676  0.50297929  1
  C  C1  1  0.00398046  0.21083615  0.99696733  1
  C  C2  1  0.51227630  0.79172585  0.49943905  1
  C  C3  1  0.01227384  0.70832624  0.00054778  1
  N  N4  1  0.60517436  0.23375737  0.58936358  1
  N  N5  1  0.41371012  0.23159683  0.40632134  1
  N  N6  1  0.10504231  0.26621317  0.91061874  1
  N  N7  1  0.91366934  0.26833371  0.09369922  1
  N  N8  1  0.59061783  0.73005626  0.60169296  1
  N  N9  1  0.41645323  0.74079304  0.40297869  1
  N  N10  1  0.09050975  0.77001337  0.89825040  1
  N  N11  1  0.91638533  0.75920144  0.09695067  1
  H  H12  1  0.49117232  0.39200152  0.51390007  1
  H  H13  1  0.67186381  0.28986564  0.65738280  1
  H  H14  1  0.64102207  0.14031544  0.57560555  1
  H  H15  1  0.33907636  0.28545955  0.34437327  1
  H  H16  1  0.41461858  0.13569775  0.38697410  1
  H  H17  1  0.99096771  0.10796921  0.98594485  1
  H  H18  1  0.17168450  0.21008703  0.84255178  1
  H  H19  1  0.14105537  0.35960519  0.92452620  1
  H  H20  1  0.83903417  0.21447141  0.15560961  1
  H  H21  1  0.91463921  0.36423412  0.11312409  1
  H  H22  1  0.53124578  0.89424612  0.49354382  1
  H  H23  1  0.66455066  0.78044474  0.66854161  1
  H  H24  1  0.58350729  0.63420210  0.61827694  1
  H  H25  1  0.35911223  0.79853769  0.32931196  1
  H  H26  1  0.39177511  0.64555517  0.39809460  1
  H  H27  1  0.03143694  0.60582830  0.00653377  1
  H  H28  1  0.16457265  0.71966513  0.83152187  1
  H  H29  1  0.08322031  0.86584607  0.88154746  1
  H  H30  1  0.85910668  0.70143984  0.17061322  1
  H  H31  1  0.89155836  0.85441582  0.10175662  1
  Zr  Zr32  1  0.48386241  0.99977214  0.99134863  1
  Zr  Zr33  1  0.98391528  0.50029671  0.50878146  1
  Pt  Pt34  1  0.85778881  0.00169627  0.52752913  1
  Pt  Pt35  1  0.35707019  0.49837988  0.97272363  1
  I  I36  1  0.50919582  0.27156842  0.00015441  1
  I  I37  1  0.23079288  0.99099971  0.19395715  1
  I  I38  1  0.70510368  0.01430613  0.25340562  1
  I  I39  1  0.00928143  0.22849038  0.49980081  1
  I  I40  1  0.30687993  0.00957470  0.72409278  1
  I  I41  1  0.76971504  0.98259049  0.81418431  1
  I  I42  1  0.50705093  0.72825334  0.00381667  1
  I  I43  1  0.73086665  0.50903031  0.30604929  1
  I  I44  1  0.20517985  0.48564621  0.24677027  1
  I  I45  1  0.00714908  0.77178515  0.49616302  1
  I  I46  1  0.26985852  0.51736365  0.68585543  1
  I  I47  1  0.80689934  0.49045148  0.77592890  1
