# generated using pymatgen
data_ZrH10PdC2(I3N2)2
_symmetry_space_group_name_H-M   'P 1'
_cell_length_a   8.45554544
_cell_length_b   11.29922956
_cell_length_c   8.44934654
_cell_angle_alpha   89.85149746
_cell_angle_beta   90.00015681
_cell_angle_gamma   90.00176931
_symmetry_Int_Tables_number   1
_chemical_formula_structural   ZrH10PdC2(I3N2)2
_chemical_formula_sum   'Zr2 H20 Pd2 C4 I12 N8'
_cell_volume   807.25756429
_cell_formula_units_Z   2
loop_
 _symmetry_equiv_pos_site_id
 _symmetry_equiv_pos_as_xyz
  1  'x, y, z'
loop_
 _atom_site_type_symbol
 _atom_site_label
 _atom_site_symmetry_multiplicity
 _atom_site_fract_x
 _atom_site_fract_y
 _atom_site_fract_z
 _atom_site_occupancy
  C  C0  1  0.49492022  0.29013271  0.49612139  1
  C  C1  1  0.99496478  0.20985865  0.00389115  1
  C  C2  1  0.50575329  0.79017445  0.50328547  1
  C  C3  1  0.00570148  0.70982394  0.99670586  1
  N  N4  1  0.59559962  0.23809826  0.59142846  1
  N  N5  1  0.39805349  0.23646372  0.39907826  1
  N  N6  1  0.09567197  0.26190558  0.90860465  1
  N  N7  1  0.89809239  0.26353181  0.10092941  1
  N  N8  1  0.60039766  0.73666803  0.60305315  1
  N  N9  1  0.40713491  0.73798997  0.40638132  1
  N  N10  1  0.10034635  0.76333891  0.89695313  1
  N  N11  1  0.90704398  0.76200930  0.09359040  1
  H  H12  1  0.49102115  0.38645486  0.49793336  1
  H  H13  1  0.66503269  0.28931347  0.66287446  1
  H  H14  1  0.60898358  0.14845860  0.59943081  1
  H  H15  1  0.32515743  0.28708664  0.32977386  1
  H  H16  1  0.39062787  0.14667408  0.38742384  1
  H  H17  1  0.99105084  0.11354510  0.00205986  1
  H  H18  1  0.16511194  0.21069064  0.83717116  1
  H  H19  1  0.10908461  0.35154004  0.90063428  1
  H  H20  1  0.82518071  0.21290394  0.17021902  1
  H  H21  1  0.89068346  0.35331571  0.11260236  1
  H  H22  1  0.50985473  0.88648492  0.50037327  1
  H  H23  1  0.67269465  0.78728308  0.67256959  1
  H  H24  1  0.60694678  0.64691942  0.61625844  1
  H  H25  1  0.33813760  0.78921453  0.33410553  1
  H  H26  1  0.39370670  0.64833783  0.39907180  1
  H  H27  1  0.00982449  0.61351968  0.99963557  1
  H  H28  1  0.17267226  0.71273102  0.82744660  1
  H  H29  1  0.10688183  0.85309126  0.88372948  1
  H  H30  1  0.83804764  0.71077773  0.16584745  1
  H  H31  1  0.89358916  0.85165177  0.10086613  1
  Zr  Zr32  1  0.49803618  0.99994260  0.99714293  1
  Zr  Zr33  1  0.99805453  0.50006978  0.50287441  1
  Pd  Pd34  1  0.99382885  0.00001940  0.50430056  1
  Pd  Pd35  1  0.49373976  0.50000310  0.99578359  1
  I  I36  1  0.49963638  0.25198618  0.99814332  1
  I  I37  1  0.22413789  0.98712917  0.20708883  1
  I  I38  1  0.71059935  0.01160916  0.27261713  1
  I  I39  1  0.99959557  0.24802792  0.50187833  1
  I  I40  1  0.29138716  0.01252983  0.72080920  1
  I  I41  1  0.77572131  0.98866256  0.78793126  1
  I  I42  1  0.50271806  0.74792153  0.00282000  1
  I  I43  1  0.72414747  0.51286197  0.29291221  1
  I  I44  1  0.21059950  0.48838976  0.22737110  1
  I  I45  1  0.00274196  0.75209074  0.49713561  1
  I  I46  1  0.27572601  0.51135271  0.71206402  1
  I  I47  1  0.79137910  0.48747692  0.77918273  1
