# generated using pymatgen
data_BaH10RuC2(I3N2)2
_symmetry_space_group_name_H-M   'P 1'
_cell_length_a   8.53553979
_cell_length_b   11.96263994
_cell_length_c   8.52552231
_cell_angle_alpha   89.92011712
_cell_angle_beta   89.99968439
_cell_angle_gamma   90.00246815
_symmetry_Int_Tables_number   1
_chemical_formula_structural   BaH10RuC2(I3N2)2
_chemical_formula_sum   'Ba2 H20 Ru2 C4 I12 N8'
_cell_volume   870.51968274
_cell_formula_units_Z   2
loop_
 _symmetry_equiv_pos_site_id
 _symmetry_equiv_pos_as_xyz
  1  'x, y, z'
loop_
 _atom_site_type_symbol
 _atom_site_label
 _atom_site_symmetry_multiplicity
 _atom_site_fract_x
 _atom_site_fract_y
 _atom_site_fract_z
 _atom_site_occupancy
  C  C0  1  0.49355231  0.28871996  0.49590015  1
  C  C1  1  0.99364116  0.21127129  0.00409204  1
  C  C2  1  0.50646452  0.78873414  0.50357556  1
  C  C3  1  0.00644309  0.71127238  0.99636702  1
  N  N4  1  0.59220194  0.23860747  0.59076987  1
  N  N5  1  0.39826981  0.23845918  0.39812668  1
  N  N6  1  0.09226717  0.26138096  0.90929855  1
  N  N7  1  0.89829151  0.26153570  0.10189878  1
  N  N8  1  0.60154256  0.73835008  0.60165954  1
  N  N9  1  0.40776735  0.73874901  0.40885685  1
  N  N10  1  0.10146376  0.76165697  0.89836921  1
  N  N11  1  0.90764564  0.76125442  0.09112852  1
  H  H12  1  0.49021144  0.37981604  0.49884881  1
  H  H13  1  0.66405180  0.28565547  0.66003442  1
  H  H14  1  0.59886289  0.15378003  0.60242590  1
  H  H15  1  0.32332921  0.28576732  0.33206064  1
  H  H16  1  0.39679948  0.15392770  0.38100039  1
  H  H17  1  0.99026475  0.12017632  0.00116148  1
  H  H18  1  0.16415844  0.21433854  0.84003219  1
  H  H19  1  0.09897186  0.34621447  0.89764269  1
  H  H20  1  0.82334945  0.21422016  0.16792318  1
  H  H21  1  0.89684582  0.34606128  0.11900978  1
  H  H22  1  0.51001286  0.87982650  0.50033107  1
  H  H23  1  0.67122151  0.78564801  0.67301484  1
  H  H24  1  0.61355396  0.65348717  0.60837925  1
  H  H25  1  0.34132538  0.78580508  0.33414321  1
  H  H26  1  0.39049659  0.65427791  0.40804266  1
  H  H27  1  0.00996539  0.62018034  0.99965561  1
  H  H28  1  0.17119626  0.71437301  0.82699919  1
  H  H29  1  0.11349044  0.84653220  0.89162508  1
  H  H30  1  0.84121816  0.71418243  0.16579463  1
  H  H31  1  0.89037596  0.84571136  0.09190444  1
  Ru  Ru32  1  0.49998019  0.00000591  0.99855791  1
  Ru  Ru33  1  -0.00002431  0.50000659  0.50144706  1
  Ba  Ba34  1  0.00116775  0.00003910  0.49816305  1
  Ba  Ba35  1  0.50116478  0.49997515  0.00183989  1
  I  I36  1  0.49772243  0.22683662  0.99404172  1
  I  I37  1  0.23733695  0.99136846  0.18186682  1
  I  I38  1  0.68403655  0.01136716  0.26112029  1
  I  I39  1  0.99768261  0.27317611  0.50600164  1
  I  I40  1  0.31604031  0.00690178  0.73612256  1
  I  I41  1  0.76180574  0.99043320  0.81348481  1
  I  I42  1  0.50231337  0.77318686  0.00456907  1
  I  I43  1  0.73732473  0.50862779  0.31814614  1
  I  I44  1  0.18402905  0.48863910  0.23888064  1
  I  I45  1  0.00235378  0.72682696  0.49538516  1
  I  I46  1  0.26179892  0.50958960  0.68652301  1
  I  I47  1  0.81603402  0.49310969  0.76388280  1
