# generated using pymatgen
data_TlH10RhC2(I3N2)2
_symmetry_space_group_name_H-M   'P 1'
_cell_length_a   8.50053053
_cell_length_b   11.77426784
_cell_length_c   8.48833942
_cell_angle_alpha   89.81471208
_cell_angle_beta   90.00049825
_cell_angle_gamma   90.00262706
_symmetry_Int_Tables_number   1
_chemical_formula_structural   TlH10RhC2(I3N2)2
_chemical_formula_sum   'Tl2 H20 Rh2 C4 I12 N8'
_cell_volume   849.57242486
_cell_formula_units_Z   2
loop_
 _symmetry_equiv_pos_site_id
 _symmetry_equiv_pos_as_xyz
  1  'x, y, z'
loop_
 _atom_site_type_symbol
 _atom_site_label
 _atom_site_symmetry_multiplicity
 _atom_site_fract_x
 _atom_site_fract_y
 _atom_site_fract_z
 _atom_site_occupancy
  C  C0  1  0.49418165  0.28925450  0.49582338  1
  C  C1  1  0.99424597  0.21074080  0.00419652  1
  C  C2  1  0.50591673  0.78929380  0.50341199  1
  C  C3  1  0.00583875  0.71071108  0.99658827  1
  N  N4  1  0.59361815  0.23856771  0.59089033  1
  N  N5  1  0.39795342  0.23806171  0.39861958  1
  N  N6  1  0.09370423  0.26143398  0.90915496  1
  N  N7  1  0.89800308  0.26192744  0.10138945  1
  N  N8  1  0.60101028  0.73810320  0.60220542  1
  N  N9  1  0.40756889  0.73860502  0.40768244  1
  N  N10  1  0.10095822  0.76191282  0.89778943  1
  N  N11  1  0.90747758  0.76138672  0.09227140  1
  H  H12  1  0.49105519  0.38182138  0.49800745  1
  H  H13  1  0.66500619  0.28675796  0.66060446  1
  H  H14  1  0.60243858  0.15236607  0.60173509  1
  H  H15  1  0.32357511  0.28632177  0.33151218  1
  H  H16  1  0.39384760  0.15199148  0.38379002  1
  H  H17  1  0.99111149  0.11817423  0.00200336  1
  H  H18  1  0.16510526  0.21324559  0.83945598  1
  H  H19  1  0.10254499  0.34763529  0.89832608  1
  H  H20  1  0.82360514  0.21366309  0.16847715  1
  H  H21  1  0.89390178  0.34799737  0.11622255  1
  H  H22  1  0.50915326  0.88185902  0.50041789  1
  H  H23  1  0.67115849  0.78635751  0.67325455  1
  H  H24  1  0.61157223  0.65185760  0.61132765  1
  H  H25  1  0.34021562  0.78682127  0.33358190  1
  H  H26  1  0.39213696  0.65259839  0.40426870  1
  H  H27  1  0.00910444  0.61814508  0.99958423  1
  H  H28  1  0.17112518  0.71366511  0.82676744  1
  H  H29  1  0.11150057  0.84815687  0.88867034  1
  H  H30  1  0.84010577  0.71316407  0.16637203  1
  H  H31  1  0.89201347  0.84739426  0.09567715  1
  Rh  Rh32  1  0.49976707  1.00000272  0.99844571  1
  Rh  Rh33  1  0.99976371  0.50000778  0.50155877  1
  Tl  Tl34  1  0.00095042  0.00005519  0.49786132  1
  Tl  Tl35  1  0.50094887  0.49995773  0.00214206  1
  I  I36  1  0.49768767  0.22985396  0.99515719  1
  I  I37  1  0.24370152  0.98982420  0.18995252  1
  I  I38  1  0.69168612  0.01027025  0.25450841  1
  I  I39  1  0.99763600  0.27015662  0.50489236  1
  I  I40  1  0.30810142  0.00858478  0.74226855  1
  I  I41  1  0.75533068  0.99139381  0.80587325  1
  I  I42  1  0.50242417  0.77015423  0.00325890  1
  I  I43  1  0.74369118  0.51016185  0.31005660  1
  I  I44  1  0.19167854  0.48973133  0.24549291  1
  I  I45  1  0.00247621  0.72985745  0.49668950  1
  I  I46  1  0.25532524  0.50863359  0.69413233  1
  I  I47  1  0.80809622  0.49142532  0.75773501  1
