# generated using pymatgen
data_InH10RhC2(I3N2)2
_symmetry_space_group_name_H-M   'P 1'
_cell_length_a   8.44766247
_cell_length_b   11.60510775
_cell_length_c   8.43618769
_cell_angle_alpha   89.85858403
_cell_angle_beta   89.99937564
_cell_angle_gamma   90.00166374
_symmetry_Int_Tables_number   1
_chemical_formula_structural   InH10RhC2(I3N2)2
_chemical_formula_sum   'In2 H20 Rh2 C4 I12 N8'
_cell_volume   827.04785724
_cell_formula_units_Z   2
loop_
 _symmetry_equiv_pos_site_id
 _symmetry_equiv_pos_as_xyz
  1  'x, y, z'
loop_
 _atom_site_type_symbol
 _atom_site_label
 _atom_site_symmetry_multiplicity
 _atom_site_fract_x
 _atom_site_fract_y
 _atom_site_fract_z
 _atom_site_occupancy
  C  C0  1  0.49429630  0.28982340  0.49601185  1
  C  C1  1  0.99436658  0.21017184  0.00400142  1
  C  C2  1  0.50571559  0.78984576  0.50347896  1
  C  C3  1  0.00563917  0.71016250  0.99651447  1
  N  N4  1  0.59421629  0.23845724  0.59170583  1
  N  N5  1  0.39775015  0.23771291  0.39824435  1
  N  N6  1  0.09430457  0.26154091  0.90834303  1
  N  N7  1  0.89779650  0.26228050  0.10176744  1
  N  N8  1  0.60144984  0.73775244  0.60246767  1
  N  N9  1  0.40679892  0.73844942  0.40716335  1
  N  N10  1  0.10139106  0.76226177  0.89753240  1
  N  N11  1  0.90670133  0.76153393  0.09279502  1
  H  H12  1  0.49103764  0.38373901  0.49817304  1
  H  H13  1  0.66529586  0.28762371  0.66250488  1
  H  H14  1  0.60412785  0.15101908  0.60174205  1
  H  H15  1  0.32353261  0.28672732  0.33004213  1
  H  H16  1  0.39278001  0.15031569  0.38423627  1
  H  H17  1  0.99109212  0.11625758  0.00183205  1
  H  H18  1  0.16540120  0.21237646  0.83755190  1
  H  H19  1  0.10424392  0.34898259  0.89832338  1
  H  H20  1  0.82356237  0.21325993  0.16994370  1
  H  H21  1  0.89283433  0.34967226  0.11577884  1
  H  H22  1  0.50891579  0.88375980  0.50085911  1
  H  H23  1  0.67265126  0.78675080  0.67343880  1
  H  H24  1  0.61125870  0.65021109  0.61221132  1
  H  H25  1  0.33837130  0.78764956  0.33343814  1
  H  H26  1  0.39226856  0.65116481  0.40239404  1
  H  H27  1  0.00886399  0.61624258  0.99913461  1
  H  H28  1  0.17261769  0.71326845  0.82657888  1
  H  H29  1  0.11118832  0.84980172  0.88779043  1
  H  H30  1  0.83826192  0.71233742  0.16651129  1
  H  H31  1  0.89214398  0.84883150  0.09755478  1
  Rh  Rh32  1  0.49973607  0.00000807  0.99853328  1
  Rh  Rh33  1  0.99973154  0.50000395  0.50147369  1
  In  In34  1  0.00126934  0.00003321  0.49810652  1
  In  In35  1  0.50126886  0.49998203  0.00189941  1
  I  I36  1  0.49790843  0.23560375  0.99616666  1
  I  I37  1  0.24295042  0.98906516  0.19634313  1
  I  I38  1  0.69807893  0.00988428  0.25505598  1
  I  I39  1  0.99786069  0.26440713  0.50388126  1
  I  I40  1  0.30181065  0.00994690  0.74170560  1
  I  I41  1  0.75580934  0.99119808  0.79965599  1
  I  I42  1  0.50202691  0.76441593  0.00264520  1
  I  I43  1  0.74294455  0.51092280  0.30366364  1
  I  I44  1  0.19807848  0.49012352  0.24494940  1
  I  I45  1  0.00207542  0.73559815  0.49730553  1
  I  I46  1  0.25579673  0.50882679  0.70035539  1
  I  I47  1  0.80179725  0.49005926  0.75829867  1
