# generated using pymatgen
data_HgH10PdC2(I3N2)2
_symmetry_space_group_name_H-M   'P 1'
_cell_length_a   8.55716886
_cell_length_b   11.81547628
_cell_length_c   8.54719801
_cell_angle_alpha   89.95453169
_cell_angle_beta   89.99992489
_cell_angle_gamma   89.99918514
_symmetry_Int_Tables_number   1
_chemical_formula_structural   HgH10PdC2(I3N2)2
_chemical_formula_sum   'Hg2 H20 Pd2 C4 I12 N8'
_cell_volume   864.18149721
_cell_formula_units_Z   2
loop_
 _symmetry_equiv_pos_site_id
 _symmetry_equiv_pos_as_xyz
  1  'x, y, z'
loop_
 _atom_site_type_symbol
 _atom_site_label
 _atom_site_symmetry_multiplicity
 _atom_site_fract_x
 _atom_site_fract_y
 _atom_site_fract_z
 _atom_site_occupancy
  C  C0  1  0.49540074  0.29003671  0.49571452  1
  C  C1  1  0.99544140  0.20997223  0.00430376  1
  C  C2  1  0.50467430  0.78996731  0.50373785  1
  C  C3  1  0.00463309  0.71003109  0.99624393  1
  N  N4  1  0.59490147  0.24023105  0.58996782  1
  N  N5  1  0.39842202  0.23850525  0.40079517  1
  N  N6  1  0.09494370  0.25977565  0.91007100  1
  N  N7  1  0.89846752  0.26150361  0.09923228  1
  N  N8  1  0.59840046  0.73864414  0.60219255  1
  N  N9  1  0.40831118  0.73996251  0.40659020  1
  N  N10  1  0.09833713  0.76137247  0.89779276  1
  N  N11  1  0.90824414  0.76002111  0.09338945  1
  H  H12  1  0.49291664  0.38238071  0.49636332  1
  H  H13  1  0.66624649  0.28951830  0.65759386  1
  H  H14  1  0.60433676  0.15439904  0.60190677  1
  H  H15  1  0.32484911  0.28673428  0.33410614  1
  H  H16  1  0.39287666  0.15259128  0.38748417  1
  H  H17  1  0.99294796  0.11762584  0.00363193  1
  H  H18  1  0.16629106  0.21049128  0.84243459  1
  H  H19  1  0.10439309  0.34561156  0.89815016  1
  H  H20  1  0.82488065  0.21326845  0.16591531  1
  H  H21  1  0.89292928  0.34741183  0.11256568  1
  H  H22  1  0.50722375  0.88231190  0.50254594  1
  H  H23  1  0.66695522  0.78707666  0.67371534  1
  H  H24  1  0.60917525  0.65265648  0.61069169  1
  H  H25  1  0.34207257  0.78905417  0.33361116  1
  H  H26  1  0.39375671  0.65421050  0.40021521  1
  H  H27  1  0.00722085  0.61768772  0.99744050  1
  H  H28  1  0.16691485  0.71294430  0.82627160  1
  H  H29  1  0.10907928  0.84734918  0.88928719  1
  H  H30  1  0.84202116  0.71092329  0.16636989  1
  H  H31  1  0.89365353  0.84577753  0.09975841  1
  Pd  Pd32  1  0.49971894  0.00001048  0.99813796  1
  Pd  Pd33  1  0.99971597  0.49999122  0.50186515  1
  Hg  Hg34  1  0.00097824  0.00001231  0.49786596  1
  Hg  Hg35  1  0.50098147  0.49998971  0.00212188  1
  I  I36  1  0.49862984  0.27412696  0.99778461  1
  I  I37  1  0.25511586  0.98709525  0.19075589  1
  I  I38  1  0.69249981  0.01012747  0.24303283  1
  I  I39  1  0.99860052  0.22587448  0.50226005  1
  I  I40  1  0.30724621  0.01289173  0.75356479  1
  I  I41  1  0.74411297  0.99002556  0.80514044  1
  I  I42  1  0.50124871  0.72588215  0.00283977  1
  I  I43  1  0.75509816  0.51290388  0.30926068  1
  I  I44  1  0.19248923  0.48987627  0.25696235  1
  I  I45  1  0.00129722  0.77411990  0.49711871  1
  I  I46  1  0.24411146  0.50998171  0.69485477  1
  I  I47  1  0.80725669  0.48710645  0.74644877  1
