# generated using pymatgen
data_HfH10PdC2(I3N2)2
_symmetry_space_group_name_H-M   'P 1'
_cell_length_a   8.61739647
_cell_length_b   10.87887507
_cell_length_c   8.68939333
_cell_angle_alpha   89.95513395
_cell_angle_beta   89.98821366
_cell_angle_gamma   89.99016442
_symmetry_Int_Tables_number   1
_chemical_formula_structural   HfH10PdC2(I3N2)2
_chemical_formula_sum   'Hf2 H20 Pd2 C4 I12 N8'
_cell_volume   814.60931474
_cell_formula_units_Z   2
loop_
 _symmetry_equiv_pos_site_id
 _symmetry_equiv_pos_as_xyz
  1  'x, y, z'
loop_
 _atom_site_type_symbol
 _atom_site_label
 _atom_site_symmetry_multiplicity
 _atom_site_fract_x
 _atom_site_fract_y
 _atom_site_fract_z
 _atom_site_occupancy
  C  C0  1  0.49141227  0.29011870  0.50001667  1
  C  C1  1  0.99149745  0.20986475  -0.00010223  1
  C  C2  1  0.49819201  0.78931968  0.50295042  1
  C  C3  1  -0.00188023  0.71072149  0.99693471  1
  N  N4  1  0.58676388  0.23714341  0.59699385  1
  N  N5  1  0.40354602  0.23376724  0.39928749  1
  N  N6  1  0.08679830  0.26287524  0.90293303  1
  N  N7  1  0.90353014  0.26617026  0.10065104  1
  N  N8  1  0.59280798  0.73348668  0.59809023  1
  N  N9  1  0.39844868  0.73582825  0.41104544  1
  N  N10  1  0.09277083  0.76654020  0.90187366  1
  N  N11  1  0.89836192  0.76420924  0.08891371  1
  H  H12  1  0.48345459  0.38995282  0.50387534  1
  H  H13  1  0.65166758  0.29093333  0.66903265  1
  H  H14  1  0.60400663  0.14436746  0.60287366  1
  H  H15  1  0.33208909  0.28525397  0.33079005  1
  H  H16  1  0.40061908  0.14070814  0.38540491  1
  H  H17  1  0.98365460  0.11001777  0.99604227  1
  H  H18  1  0.15176404  0.20911567  0.83083861  1
  H  H19  1  0.10395400  0.35566861  0.89703739  1
  H  H20  1  0.83213738  0.21465861  0.16920261  1
  H  H21  1  0.90048002  0.35922772  0.11450731  1
  H  H22  1  0.50405532  0.88923187  0.49947149  1
  H  H23  1  0.66619185  0.78560607  0.66392961  1
  H  H24  1  0.59838516  0.64037104  0.61100048  1
  H  H25  1  0.32958155  0.78933707  0.34236880  1
  H  H26  1  0.37856630  0.64321484  0.40943310  1
  H  H27  1  0.00389236  0.61078911  1.00029763  1
  H  H28  1  0.16617890  0.71442797  0.83596049  1
  H  H29  1  0.09841400  0.85967843  0.88902670  1
  H  H30  1  0.82943596  0.71070546  0.15755239  1
  H  H31  1  0.87860530  0.85683808  0.09069594  1
  Pd  Pd32  1  0.60707954  1.00053584  0.01943904  1
  Pd  Pd33  1  0.10795931  0.49934036  0.48106813  1
  Hf  Hf34  1  0.00516798  0.00031472  0.49440137  1
  Hf  Hf35  1  0.50519948  0.49966161  0.00580592  1
  I  I36  1  0.48994762  0.23995432  0.99774269  1
  I  I37  1  0.19519019  0.98968681  0.22791879  1
  I  I38  1  0.72657911  0.01285134  0.30922619  1
  I  I39  1  0.98997100  0.26004343  0.50226779  1
  I  I40  1  0.26635752  0.01121060  0.69650280  1
  I  I41  1  0.79864022  0.98701672  0.76107651  1
  I  I42  1  0.49079309  0.75959603  0.00225399  1
  I  I43  1  0.69526448  0.51029806  0.27214296  1
  I  I44  1  0.22648386  0.48723237  0.19089587  1
  I  I45  1  0.99085398  0.74038278  0.49774959  1
  I  I46  1  0.29879045  0.51304027  0.73917038  1
  I  I47  1  0.76635856  0.48874853  0.80351325  1
