# generated using pymatgen
data_AlHgH12C2(I3N)2
_symmetry_space_group_name_H-M   'P 1'
_cell_length_a   8.33884228
_cell_length_b   11.72673496
_cell_length_c   8.98733695
_cell_angle_alpha   85.82662182
_cell_angle_beta   90.60899053
_cell_angle_gamma   89.40589912
_symmetry_Int_Tables_number   1
_chemical_formula_structural   AlHgH12C2(I3N)2
_chemical_formula_sum   'Al2 Hg2 H24 C4 I12 N4'
_cell_volume   876.41368094
_cell_formula_units_Z   2
loop_
 _symmetry_equiv_pos_site_id
 _symmetry_equiv_pos_as_xyz
  1  'x, y, z'
loop_
 _atom_site_type_symbol
 _atom_site_label
 _atom_site_symmetry_multiplicity
 _atom_site_fract_x
 _atom_site_fract_y
 _atom_site_fract_z
 _atom_site_occupancy
  C  C0  1  0.47951687  0.22723895  0.43544373  1
  C  C1  1  0.00728209  0.24576022  0.09841206  1
  C  C2  1  0.52751084  0.78448522  0.56385012  1
  C  C3  1  0.02808367  0.75966094  0.89929222  1
  N  N4  1  0.54462565  0.23944576  0.58832780  1
  N  N5  1  0.01770437  0.23238977  0.93492705  1
  N  N6  1  0.45285083  0.75220540  0.42201795  1
  N  N7  1  0.97392692  0.77577176  0.05378714  1
  H  H8  1  0.57168279  0.25119416  0.35378982  1
  H  H9  1  0.44439975  0.13827098  0.42570344  1
  H  H10  1  0.37488555  0.28422268  0.41745211  1
  H  H11  1  0.65975791  0.20595576  0.60190819  1
  H  H12  1  0.54478855  0.32448724  0.61365504  1
  H  H13  1  0.47367053  0.19463828  0.66762903  1
  H  H14  1  0.12755195  0.26022030  0.14277076  1
  H  H15  1  0.95766239  0.16729143  0.15230983  1
  H  H16  1  0.92846438  0.31872360  0.11620819  1
  H  H17  1  0.11203503  0.17841126  0.90835640  1
  H  H18  1  0.03009037  0.31022573  0.87405747  1
  H  H19  1  0.91403728  0.19520325  0.89496290  1
  H  H20  1  0.43747198  0.82868304  0.62718201  1
  H  H21  1  0.56835783  0.70669296  0.62867837  1
  H  H22  1  0.62856384  0.84110070  0.53756377  1
  H  H23  1  0.41609666  0.82384127  0.35345755  1
  H  H24  1  0.35181808  0.70299897  0.44273762  1
  H  H25  1  0.53110818  0.70353255  0.36223550  1
  H  H26  1  0.92329831  0.74212119  0.83077696  1
  H  H27  1  0.08624270  0.83818079  0.85542056  1
  H  H28  1  0.11313412  0.68762979  0.90318669  1
  H  H29  1  0.88078990  0.83539199  0.05570939  1
  H  H30  1  0.93515180  0.70013598  0.10702245  1
  H  H31  1  0.06666859  0.80641387  0.11790230  1
  Al  Al32  1  0.51321081  0.96982167  0.00254548  1
  Al  Al33  1  0.89398098  0.49955277  0.52849177  1
  Hg  Hg34  1  0.01570752  0.99698537  0.50304119  1
  Hg  Hg35  1  0.35394508  0.44722630  0.96947866  1
  I  I36  1  0.54275834  0.25092162  0.02729798  1
  I  I37  1  0.25798841  0.97601670  0.19532139  1
  I  I38  1  0.71810398  0.97839676  0.23722009  1
  I  I39  1  0.99625833  0.29126686  0.50967123  1
  I  I40  1  0.29956868  0.03518998  0.77622721  1
  I  I41  1  0.76305237  0.01456935  0.80674425  1
  I  I42  1  0.52252811  0.74718567  0.98195805  1
  I  I43  1  0.67599117  0.50967996  0.32114219  1
  I  I44  1  0.19444122  0.52920421  0.20098944  1
  I  I45  1  0.00752288  0.70521963  0.48404385  1
  I  I46  1  0.33026327  0.49293461  0.66703316  1
  I  I47  1  0.80547289  0.49338103  0.80235621  1
