# generated using pymatgen
data_CdH10PdC2(I3N2)2
_symmetry_space_group_name_H-M   'P 1'
_cell_length_a   8.41804163
_cell_length_b   11.97530057
_cell_length_c   8.40743492
_cell_angle_alpha   89.98433849
_cell_angle_beta   89.99940441
_cell_angle_gamma   89.99896618
_symmetry_Int_Tables_number   1
_chemical_formula_structural   CdH10PdC2(I3N2)2
_chemical_formula_sum   'Cd2 H20 Pd2 C4 I12 N8'
_cell_volume   847.54153302
_cell_formula_units_Z   2
loop_
 _symmetry_equiv_pos_site_id
 _symmetry_equiv_pos_as_xyz
  1  'x, y, z'
loop_
 _atom_site_type_symbol
 _atom_site_label
 _atom_site_symmetry_multiplicity
 _atom_site_fract_x
 _atom_site_fract_y
 _atom_site_fract_z
 _atom_site_occupancy
  C  C0  1  0.49617206  0.28799188  0.49588262  1
  C  C1  1  0.99621779  0.21201261  0.00412353  1
  C  C2  1  0.50376975  0.78792610  0.50379163  1
  C  C3  1  0.00372206  0.71207440  0.99620355  1
  N  N4  1  0.59674146  0.23875068  0.59205619  1
  N  N5  1  0.39842545  0.23679417  0.39892764  1
  N  N6  1  0.09680102  0.26125465  0.90796493  1
  N  N7  1  0.89847334  0.26320818  0.10108675  1
  N  N8  1  0.59962915  0.73706385  0.60299863  1
  N  N9  1  0.40548369  0.73833884  0.40565397  1
  N  N10  1  0.09956353  0.76294815  0.89699586  1
  N  N11  1  0.90540773  0.76164784  0.09433362  1
  H  H12  1  0.49344839  0.37915322  0.49659418  1
  H  H13  1  0.66823885  0.28713517  0.66208828  1
  H  H14  1  0.60660896  0.15403166  0.60314726  1
  H  H15  1  0.32434593  0.28393535  0.32987002  1
  H  H16  1  0.39306435  0.15194697  0.38644203  1
  H  H17  1  0.99348358  0.12085155  0.00338766  1
  H  H18  1  0.16829997  0.21287123  0.83793281  1
  H  H19  1  0.10668602  0.34597244  0.89689466  1
  H  H20  1  0.82437904  0.21606535  0.17012894  1
  H  H21  1  0.89312187  0.34805576  0.11359035  1
  H  H22  1  0.50605506  0.87908851  0.50285501  1
  H  H23  1  0.67045113  0.78450016  0.67497262  1
  H  H24  1  0.60972532  0.65218685  0.61141970  1
  H  H25  1  0.33671301  0.78642740  0.33251326  1
  H  H26  1  0.39192222  0.65364281  0.39898136  1
  H  H27  1  0.00604613  0.62091108  0.99714978  1
  H  H28  1  0.17041181  0.71552223  0.82503403  1
  H  H29  1  0.10962889  0.84782487  0.88856840  1
  H  H30  1  0.83665046  0.71354789  0.16747311  1
  H  H31  1  0.89180739  0.84634352  0.10099578  1
  Pd  Pd32  1  0.49970589  0.00003476  0.99828593  1
  Pd  Pd33  1  0.99970235  0.49997361  0.50172290  1
  Cd  Cd34  1  0.00138581  0.99990718  0.49636536  1
  Cd  Cd35  1  0.50139403  0.50009869  0.00363459  1
  I  I36  1  0.49927335  0.27684467  0.99735096  1
  I  I37  1  0.24839381  0.98576140  0.19212329  1
  I  I38  1  0.69365757  0.01212267  0.24977307  1
  I  I39  1  0.99923626  0.22315759  0.50268523  1
  I  I40  1  0.30602159  0.01422877  0.74728524  1
  I  I41  1  0.75041203  0.98819369  0.80405700  1
  I  I42  1  0.50041300  0.72339018  0.00279477  1
  I  I43  1  0.74838875  0.51423679  0.30788663  1
  I  I44  1  0.19366076  0.48788692  0.25023681  1
  I  I45  1  0.00046331  0.77661765  0.49716908  1
  I  I46  1  0.25039862  0.51181834  0.69595266  1
  I  I47  1  0.80601682  0.48576469  0.75272308  1
