# generated using pymatgen
data_AgBiH10C2(I3N2)2
_symmetry_space_group_name_H-M   'P 1'
_cell_length_a   8.60168112
_cell_length_b   11.87788393
_cell_length_c   8.59471533
_cell_angle_alpha   90.03356362
_cell_angle_beta   89.99961636
_cell_angle_gamma   89.99787229
_symmetry_Int_Tables_number   1
_chemical_formula_structural   AgBiH10C2(I3N2)2
_chemical_formula_sum   'Ag2 Bi2 H20 C4 I12 N8'
_cell_volume   878.11993724
_cell_formula_units_Z   2
loop_
 _symmetry_equiv_pos_site_id
 _symmetry_equiv_pos_as_xyz
  1  'x, y, z'
loop_
 _atom_site_type_symbol
 _atom_site_label
 _atom_site_symmetry_multiplicity
 _atom_site_fract_x
 _atom_site_fract_y
 _atom_site_fract_z
 _atom_site_occupancy
  C  C0  1  0.49356914  0.28853358  0.49624886  1
  C  C1  1  0.99362870  0.21145669  0.00376114  1
  C  C2  1  0.50601302  0.78853269  0.50395105  1
  C  C3  1  0.00594985  0.71148084  0.99602750  1
  N  N4  1  0.59146609  0.23860459  0.59071993  1
  N  N5  1  0.39944804  0.23783309  0.39878226  1
  N  N6  1  0.09155278  0.26138737  0.90932473  1
  N  N7  1  0.89949559  0.26215427  0.10122344  1
  N  N8  1  0.60071337  0.73774785  0.60072366  1
  N  N9  1  0.40782500  0.73863760  0.40964648  1
  N  N10  1  0.10065843  0.76225912  0.89928013  1
  N  N11  1  0.90773775  0.76135940  0.09031716  1
  H  H12  1  0.48979586  0.38030250  0.49921919  1
  H  H13  1  0.66033879  0.28665836  0.66124917  1
  H  H14  1  0.60317123  0.15323079  0.59816578  1
  H  H15  1  0.32745231  0.28571800  0.33118252  1
  H  H16  1  0.39397053  0.15246267  0.38546555  1
  H  H17  1  0.98984247  0.11968834  0.00076179  1
  H  H18  1  0.16044207  0.21333269  0.83880195  1
  H  H19  1  0.10328694  0.34676016  0.90191922  1
  H  H20  1  0.82748027  0.21427002  0.16879615  1
  H  H21  1  0.89402801  0.34752343  0.11455981  1
  H  H22  1  0.50947798  0.88029761  0.50150557  1
  H  H23  1  0.67174554  0.78567354  0.66940805  1
  H  H24  1  0.60868580  0.65231420  0.61134274  1
  H  H25  1  0.34007695  0.78666119  0.33811796  1
  H  H26  1  0.39459557  0.65332033  0.40356702  1
  H  H27  1  0.00942418  0.61970698  0.99846512  1
  H  H28  1  0.17171243  0.71434242  0.83060170  1
  H  H29  1  0.10862782  0.84769976  0.88866931  1
  H  H30  1  0.83997777  0.71333486  0.16182556  1
  H  H31  1  0.89448241  0.84668133  0.09639436  1
  Ag  Ag32  1  0.50129213  0.99997969  0.99828675  1
  Ag  Ag33  1  0.00129987  0.50003946  0.50175405  1
  Bi  Bi34  1  0.00134658  0.00004875  0.49793200  1
  Bi  Bi35  1  0.50134248  0.49996877  0.00208191  1
  I  I36  1  0.49745786  0.24376411  0.99547521  1
  I  I37  1  0.21404168  0.98778169  0.20885876  1
  I  I38  1  0.71139381  0.01345652  0.28401123  1
  I  I39  1  0.99740838  0.25625161  0.50456254  1
  I  I40  1  0.28888461  0.01254384  0.71262755  1
  I  I41  1  0.78543374  0.98630805  0.78643249  1
  I  I42  1  0.50183577  0.75622335  0.00453595  1
  I  I43  1  0.71403223  0.51222282  0.29115523  1
  I  I44  1  0.21137943  0.48655897  0.21599085  1
  I  I45  1  0.00188348  0.74379298  0.49541744  1
  I  I46  1  0.28543859  0.51370622  0.71357359  1
  I  I47  1  0.78887598  0.48744986  0.78738438  1
