# generated using pymatgen
data_AgH10AuC2(I3N2)2
_symmetry_space_group_name_H-M   'P 1'
_cell_length_a   8.20031975
_cell_length_b   11.56159150
_cell_length_c   8.95287029
_cell_angle_alpha   90.12225491
_cell_angle_beta   89.99972470
_cell_angle_gamma   89.99895655
_symmetry_Int_Tables_number   1
_chemical_formula_structural   AgH10AuC2(I3N2)2
_chemical_formula_sum   'Ag2 H20 Au2 C4 I12 N8'
_cell_volume   848.80848297
_cell_formula_units_Z   2
loop_
 _symmetry_equiv_pos_site_id
 _symmetry_equiv_pos_as_xyz
  1  'x, y, z'
loop_
 _atom_site_type_symbol
 _atom_site_label
 _atom_site_symmetry_multiplicity
 _atom_site_fract_x
 _atom_site_fract_y
 _atom_site_fract_z
 _atom_site_occupancy
  C  C0  1  0.49697001  0.28466908  0.49712163  1
  C  C1  1  0.99684016  0.21537791  0.00292646  1
  C  C2  1  0.50356616  0.78574914  0.50333264  1
  C  C3  1  0.00357923  0.71419842  0.99664245  1
  N  N4  1  0.58182854  0.23403347  0.60250387  1
  N  N5  1  0.41475321  0.23153656  0.39175271  1
  N  N6  1  0.08175972  0.26599609  0.89755317  1
  N  N7  1  0.91467330  0.26853141  0.10829813  1
  N  N8  1  0.58475647  0.73251022  0.60897598  1
  N  N9  1  0.41843139  0.73539483  0.39766437  1
  N  N10  1  0.08474147  0.76743100  0.89099789  1
  N  N11  1  0.91842203  0.76455301  0.10231773  1
  H  H12  1  0.49441286  0.37905304  0.49706177  1
  H  H13  1  0.64362705  0.28407150  0.67802048  1
  H  H14  1  0.59296492  0.14637649  0.61258922  1
  H  H15  1  0.35072951  0.27994853  0.31633601  1
  H  H16  1  0.40779957  0.14364468  0.38154902  1
  H  H17  1  0.99419102  0.12099483  0.00294627  1
  H  H18  1  0.14351436  0.21594613  0.82203054  1
  H  H19  1  0.09297029  0.35364366  0.88751263  1
  H  H20  1  0.85060225  0.22013709  0.18371053  1
  H  H21  1  0.90779693  0.35642855  0.11853881  1
  H  H22  1  0.50731573  0.88008917  0.50342067  1
  H  H23  1  0.64893949  0.78092679  0.68472785  1
  H  H24  1  0.59011365  0.64457754  0.61837086  1
  H  H25  1  0.35753703  0.78564887  0.32186627  1
  H  H26  1  0.40678256  0.64772419  0.38820954  1
  H  H27  1  0.00735260  0.61985840  0.99658098  1
  H  H28  1  0.14895374  0.71901320  0.81525022  1
  H  H29  1  0.09008805  0.85536932  0.88158309  1
  H  H30  1  0.85755201  0.71429432  0.17811355  1
  H  H31  1  0.90675768  0.85221807  0.11175891  1
  Ag  Ag32  1  0.49956136  0.97924694  0.99782997  1
  Ag  Ag33  1  0.99958086  0.52077376  0.50213343  1
  Au  Au34  1  0.00030734  0.02011284  0.49812026  1
  Au  Au35  1  0.50029538  0.47990301  0.00186765  1
  I  I36  1  0.49891638  0.24550648  0.99831689  1
  I  I37  1  0.24787852  0.97962072  0.18585246  1
  I  I38  1  0.74645506  0.01992580  0.30644861  1
  I  I39  1  0.99897249  0.25450207  0.50169654  1
  I  I40  1  0.25460870  0.02079786  0.68892918  1
  I  I41  1  0.75172659  0.98063484  0.81018969  1
  I  I42  1  0.50032208  0.71521616  0.00326728  1
  I  I43  1  0.74787518  0.52040049  0.31413801  1
  I  I44  1  0.24645163  0.48008849  0.19354655  1
  I  I45  1  0.00035953  0.78480738  0.49668345  1
  I  I46  1  0.25177031  0.51937221  0.68973904  1
  I  I47  1  0.75461496  0.47920846  0.81108149  1
