# generated using pymatgen
data_AgSbH10C2(I3N2)2
_symmetry_space_group_name_H-M   'P 1'
_cell_length_a   8.54801615
_cell_length_b   11.80530848
_cell_length_c   8.54088340
_cell_angle_alpha   90.05813283
_cell_angle_beta   89.99972028
_cell_angle_gamma   89.99788477
_symmetry_Int_Tables_number   1
_chemical_formula_structural   AgSbH10C2(I3N2)2
_chemical_formula_sum   'Ag2 Sb2 H20 C4 I12 N8'
_cell_volume   861.87690370
_cell_formula_units_Z   2
loop_
 _symmetry_equiv_pos_site_id
 _symmetry_equiv_pos_as_xyz
  1  'x, y, z'
loop_
 _atom_site_type_symbol
 _atom_site_label
 _atom_site_symmetry_multiplicity
 _atom_site_fract_x
 _atom_site_fract_y
 _atom_site_fract_z
 _atom_site_occupancy
  C  C0  1  0.49344758  0.28897879  0.49634909  1
  C  C1  1  0.99351550  0.21100487  0.00366002  1
  C  C2  1  0.50620199  0.78896314  0.50382498  1
  C  C3  1  0.00611320  0.71104448  0.99616575  1
  N  N4  1  0.59184659  0.23868514  0.59135358  1
  N  N5  1  0.39875005  0.23800269  0.39827772  1
  N  N6  1  0.09194124  0.26130584  0.90870080  1
  N  N7  1  0.89879140  0.26198963  0.10173124  1
  N  N8  1  0.60152536  0.73795411  0.60115269  1
  N  N9  1  0.40737168  0.73871411  0.40915259  1
  N  N10  1  0.10147651  0.76206196  0.89884177  1
  N  N11  1  0.90727674  0.76128490  0.09079700  1
  H  H12  1  0.48971033  0.38124547  0.49942890  1
  H  H13  1  0.66080438  0.28702214  0.66271109  1
  H  H14  1  0.60414664  0.15282050  0.59818830  1
  H  H15  1  0.32670073  0.28627962  0.32995415  1
  H  H16  1  0.39251266  0.15212026  0.38538631  1
  H  H17  1  0.98976297  0.11874554  0.00055720  1
  H  H18  1  0.16092060  0.21296541  0.83735241  1
  H  H19  1  0.10427136  0.34716721  0.90190635  1
  H  H20  1  0.82672491  0.21370791  0.17001962  1
  H  H21  1  0.89256643  0.34786302  0.11463452  1
  H  H22  1  0.50981855  0.88124393  0.50121466  1
  H  H23  1  0.67340331  0.78624592  0.66977266  1
  H  H24  1  0.60895925  0.65202630  0.61254004  1
  H  H25  1  0.33880637  0.78701693  0.33751328  1
  H  H26  1  0.39454237  0.65286167  0.40255113  1
  H  H27  1  0.00975212  0.61876345  0.99875191  1
  H  H28  1  0.17336522  0.71377114  0.83024164  1
  H  H29  1  0.10889623  0.84798600  0.88747724  1
  H  H30  1  0.83868414  0.71297949  0.16242010  1
  H  H31  1  0.89441125  0.84714084  0.09740346  1
  Ag  Ag32  1  0.50142186  0.99995357  0.99869500  1
  Ag  Ag33  1  0.00143109  0.50006863  0.50134370  1
  Sb  Sb34  1  0.00136818  0.00006567  0.49829338  1
  Sb  Sb35  1  0.50136215  0.49995312  0.00171840  1
  I  I36  1  0.49743558  0.24651154  0.99550337  1
  I  I37  1  0.21217113  0.98804075  0.21191287  1
  I  I38  1  0.71383288  0.01335932  0.28597115  1
  I  I39  1  0.99739019  0.25350519  0.50454145  1
  I  I40  1  0.28617582  0.01241037  0.71092571  1
  I  I41  1  0.78728392  0.98630285  0.78433079  1
  I  I42  1  0.50182264  0.75344585  0.00451920  1
  I  I43  1  0.71216010  0.51195818  0.28809870  1
  I  I44  1  0.21381626  0.48666251  0.21402992  1
  I  I45  1  0.00187386  0.74657180  0.49543113  1
  I  I46  1  0.28729002  0.51371519  0.71567339  1
  I  I47  1  0.78616601  0.48757604  0.78908440  1
