# generated using pymatgen
data_CdH10PbC2(I3N2)2
_symmetry_space_group_name_H-M   'P 1'
_cell_length_a   8.62671318
_cell_length_b   12.06476333
_cell_length_c   8.62027815
_cell_angle_alpha   89.98945407
_cell_angle_beta   89.99999783
_cell_angle_gamma   90.00000572
_symmetry_Int_Tables_number   1
_chemical_formula_structural   CdH10PbC2(I3N2)2
_chemical_formula_sum   'Cd2 H20 Pb2 C4 I12 N8'
_cell_volume   897.19209283
_cell_formula_units_Z   2
loop_
 _symmetry_equiv_pos_site_id
 _symmetry_equiv_pos_as_xyz
  1  'x, y, z'
loop_
 _atom_site_type_symbol
 _atom_site_label
 _atom_site_symmetry_multiplicity
 _atom_site_fract_x
 _atom_site_fract_y
 _atom_site_fract_z
 _atom_site_occupancy
  C  C0  1  0.49314564  0.28884601  0.49613511  1
  C  C1  1  0.99321174  0.21114127  0.00388278  1
  C  C2  1  0.50684077  0.78886373  0.50371366  1
  C  C3  1  0.00676189  0.71114399  0.99626105  1
  N  N4  1  0.59102013  0.23947577  0.59000669  1
  N  N5  1  0.39880480  0.23894492  0.39937291  1
  N  N6  1  0.09111637  0.26051369  0.91004849  1
  N  N7  1  0.89884896  0.26103973  0.10062897  1
  N  N8  1  0.60096280  0.73895113  0.60075722  1
  N  N9  1  0.40918185  0.73950611  0.40968068  1
  N  N10  1  0.10090384  0.76106066  0.89924735  1
  N  N11  1  0.90906999  0.76049586  0.09026989  1
  H  H12  1  0.48963211  0.37919819  0.49909012  1
  H  H13  1  0.66016751  0.28633061  0.66026838  1
  H  H14  1  0.60139804  0.15538620  0.59723613  1
  H  H15  1  0.32662662  0.28589747  0.33206087  1
  H  H16  1  0.39410831  0.15490830  0.38651964  1
  H  H17  1  0.98968954  0.12078962  0.00091017  1
  H  H18  1  0.16029007  0.21365963  0.83980927  1
  H  H19  1  0.10152543  0.34460292  0.90285719  1
  H  H20  1  0.82664610  0.21408543  0.16791287  1
  H  H21  1  0.89415736  0.34507521  0.11349436  1
  H  H22  1  0.51037295  0.87921704  0.50071289  1
  H  H23  1  0.67176843  0.78591719  0.66945087  1
  H  H24  1  0.60852094  0.65482066  0.61080031  1
  H  H25  1  0.34147224  0.78634345  0.33797551  1
  H  H26  1  0.39602971  0.65551750  0.40530736  1
  H  H27  1  0.01029987  0.62078874  0.99925634  1
  H  H28  1  0.17173328  0.71410130  0.83057070  1
  H  H29  1  0.10845941  0.84519177  0.88921411  1
  H  H30  1  0.84133430  0.71365119  0.16194368  1
  H  H31  1  0.89589063  0.84448144  0.09462907  1
  Cd  Cd32  1  0.49988559  0.99991657  0.99859877  1
  Cd  Cd33  1  0.99989300  0.50011185  0.50143661  1
  Pb  Pb34  1  0.00083933  0.00011630  0.49825264  1
  Pb  Pb35  1  0.50083129  0.49991037  0.00176922  1
  I  I36  1  0.49760807  0.24121271  0.99366031  1
  I  I37  1  0.20990527  0.98607009  0.19561978  1
  I  I38  1  0.69683740  0.01804711  0.28877600  1
  I  I39  1  0.99757237  0.25880817  0.50638649  1
  I  I40  1  0.30264503  0.01328253  0.70868469  1
  I  I41  1  0.78991671  0.98261738  0.80132387  1
  I  I42  1  0.50239207  0.75874474  0.00595268  1
  I  I43  1  0.70989028  0.51391306  0.30440232  1
  I  I44  1  0.19681806  0.48196987  0.21122341  1
  I  I45  1  0.00243080  0.74127475  0.49398411  1
  I  I46  1  0.28992827  0.51741332  0.69867782  1
  I  I47  1  0.80263414  0.48670745  0.79133141  1
