# generated using pymatgen
data_CdHgH10C2(I3N2)2
_symmetry_space_group_name_H-M   'P 1'
_cell_length_a   8.67822465
_cell_length_b   11.75795912
_cell_length_c   8.67213291
_cell_angle_alpha   90.11491123
_cell_angle_beta   89.99814122
_cell_angle_gamma   89.99396659
_symmetry_Int_Tables_number   1
_chemical_formula_structural   CdHgH10C2(I3N2)2
_chemical_formula_sum   'Cd2 Hg2 H20 C4 I12 N8'
_cell_volume   884.88713990
_cell_formula_units_Z   2
loop_
 _symmetry_equiv_pos_site_id
 _symmetry_equiv_pos_as_xyz
  1  'x, y, z'
loop_
 _atom_site_type_symbol
 _atom_site_label
 _atom_site_symmetry_multiplicity
 _atom_site_fract_x
 _atom_site_fract_y
 _atom_site_fract_z
 _atom_site_occupancy
  C  C0  1  0.49444009  0.28890439  0.49585677  1
  C  C1  1  0.99448475  0.21109117  0.00415020  1
  C  C2  1  0.50539870  0.78888406  0.50427533  1
  C  C3  1  0.00534813  0.71112331  0.99570154  1
  N  N4  1  0.59216263  0.23893545  0.58916610  1
  N  N5  1  0.39966653  0.23721180  0.40099080  1
  N  N6  1  0.09222706  0.26105376  0.91086502  1
  N  N7  1  0.89971086  0.26278201  0.09903389  1
  N  N8  1  0.59800534  0.73706930  0.60084436  1
  N  N9  1  0.40913423  0.73904188  0.40904144  1
  N  N10  1  0.09794791  0.76293574  0.89913731  1
  N  N11  1  0.90906206  0.76095630  0.09093631  1
  H  H12  1  0.49146250  0.38169976  0.49735762  1
  H  H13  1  0.66105631  0.28844241  0.65756910  1
  H  H14  1  0.60329131  0.15270100  0.59841710  1
  H  H15  1  0.32832202  0.28579618  0.33410186  1
  H  H16  1  0.39363838  0.15086269  0.38839933  1
  H  H17  1  0.99149090  0.11829319  0.00260961  1
  H  H18  1  0.16111903  0.21154524  0.84244350  1
  H  H19  1  0.10337154  0.34728965  0.90165039  1
  H  H20  1  0.82835726  0.21420000  0.16590572  1
  H  H21  1  0.89369677  0.34912873  0.11166299  1
  H  H22  1  0.50899790  0.88165126  0.50299802  1
  H  H23  1  0.66745242  0.78564721  0.66999338  1
  H  H24  1  0.60619232  0.65066242  0.61063831  1
  H  H25  1  0.34289112  0.78854119  0.33833768  1
  H  H26  1  0.39528533  0.65287568  0.40186323  1
  H  H27  1  0.00897349  0.61834732  0.99697381  1
  H  H28  1  0.16741645  0.71436251  0.82999123  1
  H  H29  1  0.10610922  0.84934249  0.88935673  1
  H  H30  1  0.84282737  0.71145086  0.16163902  1
  H  H31  1  0.89518276  0.84712101  0.09812280  1
  Cd  Cd32  1  0.50131784  1.00000409  0.99690498  1
  Cd  Cd33  1  0.00131632  0.50003313  0.50312252  1
  Hg  Hg34  1  0.00388871  0.00011600  0.49409229  1
  Hg  Hg35  1  0.50388419  0.49990629  0.00595599  1
  I  I36  1  0.49614013  0.26932557  0.99592913  1
  I  I37  1  0.23356544  0.98528184  0.20030061  1
  I  I38  1  0.70310603  0.01317152  0.26459279  1
  I  I39  1  0.99607535  0.23069265  0.50411883  1
  I  I40  1  0.29675301  0.01520663  0.73171351  1
  I  I41  1  0.76638526  0.98645642  0.79371509  1
  I  I42  1  0.50150900  0.73066734  0.00375964  1
  I  I43  1  0.73356473  0.51473878  0.29969859  1
  I  I44  1  0.20309552  0.48683575  0.23541301  1
  I  I45  1  0.00158887  0.76935172  0.49617875  1
  I  I46  1  0.26637605  0.51353196  0.70629775  1
  I  I47  1  0.79673023  0.48479326  0.76828076  1
