# generated using pymatgen
data_CdH10PtC2(I3N2)2
_symmetry_space_group_name_H-M   'P 1'
_cell_length_a   8.45588847
_cell_length_b   12.02308981
_cell_length_c   8.44374896
_cell_angle_alpha   90.00774017
_cell_angle_beta   90.00045882
_cell_angle_gamma   89.99907695
_symmetry_Int_Tables_number   1
_chemical_formula_structural   CdH10PtC2(I3N2)2
_chemical_formula_sum   'Cd2 H20 Pt2 C4 I12 N8'
_cell_volume   858.44138377
_cell_formula_units_Z   2
loop_
 _symmetry_equiv_pos_site_id
 _symmetry_equiv_pos_as_xyz
  1  'x, y, z'
loop_
 _atom_site_type_symbol
 _atom_site_label
 _atom_site_symmetry_multiplicity
 _atom_site_fract_x
 _atom_site_fract_y
 _atom_site_fract_z
 _atom_site_occupancy
  C  C0  1  0.49605374  0.28870374  0.49622531  1
  C  C1  1  0.99610784  0.21129647  0.00376085  1
  C  C2  1  0.50397784  0.78882524  0.50422255  1
  C  C3  1  0.00392125  0.71118206  0.99578402  1
  N  N4  1  0.59390628  0.23936088  0.59400179  1
  N  N5  1  0.40061645  0.23825367  0.39722491  1
  N  N6  1  0.09396412  0.26063432  0.90601425  1
  N  N7  1  0.90067822  0.26174769  0.10278805  1
  N  N8  1  0.60167022  0.73796420  0.60050769  1
  N  N9  1  0.40383177  0.73989911  0.40834588  1
  N  N10  1  0.10160763  0.76205115  0.89949909  1
  N  N11  1  0.90377277  0.76010366  0.09165669  1
  H  H12  1  0.49375546  0.37951056  0.49728571  1
  H  H13  1  0.66189832  0.28735026  0.66718515  1
  H  H14  1  0.60766001  0.15502254  0.60097491  1
  H  H15  1  0.33046159  0.28570572  0.32545634  1
  H  H16  1  0.39034263  0.15374985  0.38838839  1
  H  H17  1  0.99377085  0.12048888  0.00267546  1
  H  H18  1  0.16194491  0.21264515  0.83281251  1
  H  H19  1  0.10775184  0.34497212  0.89906332  1
  H  H20  1  0.83050976  0.21429563  0.17453810  1
  H  H21  1  0.89043499  0.34625130  0.11164945  1
  H  H22  1  0.50632034  0.87963899  0.50387245  1
  H  H23  1  0.67551128  0.78504550  0.66900608  1
  H  H24  1  0.60767179  0.65347379  0.61289084  1
  H  H25  1  0.33221622  0.78826282  0.33922626  1
  H  H26  1  0.39395428  0.65554297  0.39671946  1
  H  H27  1  0.00627782  0.62036886  0.99612861  1
  H  H28  1  0.17545237  0.71497413  0.83099804  1
  H  H29  1  0.10759351  0.84653967  0.88712027  1
  H  H30  1  0.83216034  0.71173339  0.16077579  1
  H  H31  1  0.89388073  0.84445813  0.10329024  1
  Cd  Cd32  1  0.49717418  0.00006677  0.99625573  1
  Cd  Cd33  1  0.99717414  0.49993410  0.50375579  1
  Pt  Pt34  1  0.00041603  0.99997235  0.49800648  1
  Pt  Pt35  1  0.50041231  0.50002765  0.00199364  1
  I  I36  1  0.49945074  0.22203955  0.99742761  1
  I  I37  1  0.19538765  0.98604597  0.25236314  1
  I  I38  1  0.75513168  0.01040013  0.30249911  1
  I  I39  1  0.99940954  0.27796106  0.50260185  1
  I  I40  1  0.24630134  0.01410694  0.69301507  1
  I  I41  1  0.80534761  0.98918227  0.74413501  1
  I  I42  1  0.50097257  0.77813445  0.00205277  1
  I  I43  1  0.69540250  0.51394665  0.24762708  1
  I  I44  1  0.25513820  0.48961392  0.19751173  1
  I  I45  1  0.00101418  0.72186592  0.49792450  1
  I  I46  1  0.30532858  0.51082639  0.75587520  1
  I  I47  1  0.74628093  0.48588640  0.80697159  1
