# generated using pymatgen
data_HfCdH10C2(I3N2)2
_symmetry_space_group_name_H-M   'P 1'
_cell_length_a   8.64528920
_cell_length_b   12.28798140
_cell_length_c   8.63791126
_cell_angle_alpha   90.11439501
_cell_angle_beta   89.99954219
_cell_angle_gamma   89.99473578
_symmetry_Int_Tables_number   1
_chemical_formula_structural   HfCdH10C2(I3N2)2
_chemical_formula_sum   'Hf2 Cd2 H20 C4 I12 N8'
_cell_volume   917.63071538
_cell_formula_units_Z   2
loop_
 _symmetry_equiv_pos_site_id
 _symmetry_equiv_pos_as_xyz
  1  'x, y, z'
loop_
 _atom_site_type_symbol
 _atom_site_label
 _atom_site_symmetry_multiplicity
 _atom_site_fract_x
 _atom_site_fract_y
 _atom_site_fract_z
 _atom_site_occupancy
  C  C0  1  0.49282415  0.28848316  0.49650228  1
  C  C1  1  0.99290184  0.21150317  0.00351491  1
  C  C2  1  0.50677200  0.78844946  0.50396855  1
  C  C3  1  0.00668253  0.71155968  0.99600520  1
  N  N4  1  0.58982408  0.23998181  0.59087272  1
  N  N5  1  0.39945884  0.23962342  0.39874405  1
  N  N6  1  0.08994422  0.26000171  0.90919013  1
  N  N7  1  0.89950825  0.26036103  0.10125175  1
  N  N8  1  0.60177851  0.73966442  0.59994133  1
  N  N9  1  0.40836170  0.73988367  0.41088342  1
  N  N10  1  0.10172770  0.76035359  0.90006505  1
  N  N11  1  0.90824691  0.76012155  0.08906256  1
  H  H12  1  0.48922421  0.37724608  0.49987512  1
  H  H13  1  0.65751309  0.28616053  0.66200838  1
  H  H14  1  0.60373002  0.15753560  0.59470460  1
  H  H15  1  0.32875360  0.28590225  0.33076320  1
  H  H16  1  0.39145718  0.15698600  0.38841143  1
  H  H17  1  0.98929826  0.12273930  0.00011279  1
  H  H18  1  0.15766171  0.21382164  0.83808480  1
  H  H19  1  0.10387204  0.34244260  0.90540968  1
  H  H20  1  0.82876920  0.21408176  0.16920237  1
  H  H21  1  0.89150008  0.34300144  0.11160649  1
  H  H22  1  0.51023258  0.87721837  0.50093616  1
  H  H23  1  0.67352252  0.78605364  0.66690274  1
  H  H24  1  0.60654712  0.65716241  0.61319168  1
  H  H25  1  0.33992045  0.78595514  0.34054316  1
  H  H26  1  0.39823330  0.65728264  0.40290785  1
  H  H27  1  0.01015121  0.62278889  0.99900953  1
  H  H28  1  0.17349095  0.71395975  0.83311375  1
  H  H29  1  0.10648416  0.84284569  0.88683843  1
  H  H30  1  0.83976494  0.71404950  0.15935315  1
  H  H31  1  0.89807782  0.84272555  0.09703155  1
  Cd  Cd32  1  0.50109916  0.99989699  0.99928449  1
  Cd  Cd33  1  0.00110227  0.50013093  0.50075002  1
  Hf  Hf34  1  0.00134087  0.00010683  0.49916012  1
  Hf  Hf35  1  0.50133113  0.49991202  0.00084880  1
  I  I36  1  0.49723813  0.27085014  0.99363194  1
  I  I37  1  0.18006523  0.98800951  0.22063027  1
  I  I38  1  0.72213976  0.01678115  0.31955665  1
  I  I39  1  0.99720080  0.22916460  0.50642338  1
  I  I40  1  0.27846665  0.01399337  0.67942182  1
  I  I41  1  0.82049168  0.98141948  0.77719588  1
  I  I42  1  0.50106634  0.72903571  0.00641946  1
  I  I43  1  0.68004740  0.51198505  0.27938630  1
  I  I44  1  0.22211926  0.48326171  0.18043668  1
  I  I45  1  0.00110214  0.77098515  0.49355055  1
  I  I46  1  0.32051190  0.51860547  0.72280102  1
  I  I47  1  0.77846143  0.48597942  0.82059858  1
