# generated using pymatgen
data_BaCdH10C2(I3N2)2
_symmetry_space_group_name_H-M   'P 1'
_cell_length_a   8.75567270
_cell_length_b   12.37677401
_cell_length_c   8.74924551
_cell_angle_alpha   90.01357996
_cell_angle_beta   90.00034931
_cell_angle_gamma   89.99874763
_symmetry_Int_Tables_number   1
_chemical_formula_structural   BaCdH10C2(I3N2)2
_chemical_formula_sum   'Ba2 Cd2 H20 C4 I12 N8'
_cell_volume   948.12930588
_cell_formula_units_Z   2
loop_
 _symmetry_equiv_pos_site_id
 _symmetry_equiv_pos_as_xyz
  1  'x, y, z'
loop_
 _atom_site_type_symbol
 _atom_site_label
 _atom_site_symmetry_multiplicity
 _atom_site_fract_x
 _atom_site_fract_y
 _atom_site_fract_z
 _atom_site_occupancy
  C  C0  1  0.49276169  0.28900959  0.49636737  1
  C  C1  1  0.99283967  0.21097623  0.00365681  1
  C  C2  1  0.50728500  0.78901694  0.50350281  1
  C  C3  1  0.00719358  0.71098874  0.99646313  1
  N  N4  1  0.58943623  0.24046779  0.58838073  1
  N  N5  1  0.39940418  0.24029317  0.40117774  1
  N  N6  1  0.08954839  0.25951732  0.91168827  1
  N  N7  1  0.89945099  0.25968806  0.09882096  1
  N  N8  1  0.59985804  0.74028272  0.59942354  1
  N  N9  1  0.41131684  0.74048791  0.41071511  1
  N  N10  1  0.09980040  0.75973264  0.90058098  1
  N  N11  1  0.91119195  0.75950953  0.08921720  1
  H  H12  1  0.48941840  0.37713317  0.49961551  1
  H  H13  1  0.65818864  0.28550549  0.65780656  1
  H  H14  1  0.59775238  0.15835838  0.59556675  1
  H  H15  1  0.32771988  0.28564495  0.33503536  1
  H  H16  1  0.39674501  0.15836033  0.38761187  1
  H  H17  1  0.98949346  0.12285163  0.00039162  1
  H  H18  1  0.15833597  0.21448245  0.84229962  1
  H  H19  1  0.09789814  0.34162404  0.90454562  1
  H  H20  1  0.82773320  0.21433348  0.16493082  1
  H  H21  1  0.89678949  0.34162527  0.11239884  1
  H  H22  1  0.51058841  0.87713961  0.50037853  1
  H  H23  1  0.66965315  0.78561800  0.66758601  1
  H  H24  1  0.60782982  0.65818107  0.60756861  1
  H  H25  1  0.34432867  0.78555246  0.33963201  1
  H  H26  1  0.39772420  0.65856844  0.40872991  1
  H  H27  1  0.01049734  0.62286567  0.99957482  1
  H  H28  1  0.16962731  0.71439731  0.83243638  1
  H  H29  1  0.10777183  0.84183374  0.89245180  1
  H  H30  1  0.84416491  0.71444684  0.16025341  1
  H  H31  1  0.89757231  0.84142943  0.09118624  1
  Cd  Cd32  1  0.49967054  0.99987380  0.99871804  1
  Cd  Cd33  1  0.99967677  0.50015731  0.50132104  1
  Ba  Ba34  1  0.00001828  0.00015679  0.49871468  1
  Ba  Ba35  1  0.50000836  0.49987612  0.00130850  1
  I  I36  1  0.49824252  0.23450867  0.99245498  1
  I  I37  1  0.20874711  0.98526964  0.18082157  1
  I  I38  1  0.68041278  0.02182135  0.29147828  1
  I  I39  1  0.99823268  0.26552021  0.50760305  1
  I  I40  1  0.31808086  0.01374183  0.70767135  1
  I  I41  1  0.79243058  0.97909334  0.81836762  1
  I  I42  1  0.50246724  0.76535335  0.00752697  1
  I  I43  1  0.70872469  0.51469460  0.31921444  1
  I  I44  1  0.18039128  0.47820068  0.20852148  1
  I  I45  1  0.00248099  0.73467093  0.49239809  1
  I  I46  1  0.29244520  0.52095535  0.68163350  1
  I  I47  1  0.81806996  0.48624662  0.79235623  1
