# generated using pymatgen
data_CdSnH10C2(I3N2)2
_symmetry_space_group_name_H-M   'P 1'
_cell_length_a   8.60842551
_cell_length_b   11.94875774
_cell_length_c   8.60245635
_cell_angle_alpha   90.01545801
_cell_angle_beta   89.99970600
_cell_angle_gamma   89.99904206
_symmetry_Int_Tables_number   1
_chemical_formula_structural   CdSnH10C2(I3N2)2
_chemical_formula_sum   'Cd2 Sn2 H20 C4 I12 N8'
_cell_volume   884.84854899
_cell_formula_units_Z   2
loop_
 _symmetry_equiv_pos_site_id
 _symmetry_equiv_pos_as_xyz
  1  'x, y, z'
loop_
 _atom_site_type_symbol
 _atom_site_label
 _atom_site_symmetry_multiplicity
 _atom_site_fract_x
 _atom_site_fract_y
 _atom_site_fract_z
 _atom_site_occupancy
  C  C0  1  0.49327233  0.28876099  0.49616970  1
  C  C1  1  0.99333957  0.21122637  0.00384760  1
  C  C2  1  0.50669622  0.78876983  0.50378037  1
  C  C3  1  0.00662110  0.71123632  0.99619790  1
  N  N4  1  0.59128542  0.23916174  0.59042679  1
  N  N5  1  0.39880125  0.23850390  0.39905410  1
  N  N6  1  0.09137994  0.26082704  0.90962987  1
  N  N7  1  0.89884496  0.26148140  0.10095230  1
  N  N8  1  0.60109951  0.73852200  0.60089380  1
  N  N9  1  0.40862540  0.73916536  0.40952069  1
  N  N10  1  0.10105105  0.76148978  0.89910322  1
  N  N11  1  0.90852853  0.76083566  0.09042586  1
  H  H12  1  0.48970506  0.37994395  0.49906855  1
  H  H13  1  0.66012704  0.28697329  0.66071191  1
  H  H14  1  0.60266582  0.15429246  0.59807815  1
  H  H15  1  0.32696622  0.28633940  0.33163047  1
  H  H16  1  0.39308704  0.15366646  0.38588665  1
  H  H17  1  0.98976261  0.12004294  0.00093079  1
  H  H18  1  0.16024649  0.21301741  0.83935859  1
  H  H19  1  0.10279007  0.34569602  0.90201788  1
  H  H20  1  0.82698790  0.21364643  0.16834762  1
  H  H21  1  0.89313905  0.34631882  0.11412946  1
  H  H22  1  0.51035156  0.87995488  0.50087579  1
  H  H23  1  0.67196728  0.78637228  0.66934471  1
  H  H24  1  0.60903412  0.65361266  0.61181526  1
  H  H25  1  0.34095362  0.78695351  0.33810014  1
  H  H26  1  0.39516338  0.65437268  0.40394649  1
  H  H27  1  0.01028770  0.62005440  0.99909247  1
  H  H28  1  0.17193634  0.71364430  0.83066942  1
  H  H29  1  0.10897868  0.84640322  0.88819448  1
  H  H30  1  0.84083202  0.71304048  0.16182427  1
  H  H31  1  0.89503092  0.84562314  0.09599538  1
  Cd  Cd32  1  0.50031777  0.99994981  0.99878742  1
  Cd  Cd33  1  0.00032565  0.50007530  0.50125062  1
  Sn  Sn34  1  0.00154308  0.00009729  0.49824999  1
  Sn  Sn35  1  0.50153663  0.49992734  0.00177490  1
  I  I36  1  0.49739731  0.24370576  0.99453857  1
  I  I37  1  0.21171634  0.98723510  0.20272191  1
  I  I38  1  0.70460634  0.01534677  0.28612270  1
  I  I39  1  0.99735337  0.25631334  0.50550256  1
  I  I40  1  0.29533220  0.01229834  0.71053998  1
  I  I41  1  0.78725509  0.98521896  0.79334117  1
  I  I42  1  0.50207949  0.75627294  0.00506685  1
  I  I43  1  0.71170543  0.51276025  0.29729375  1
  I  I44  1  0.20458735  0.48466823  0.21387911  1
  I  I45  1  0.00212101  0.74374577  0.49487663  1
  I  I46  1  0.28726313  0.51480466  0.70666477  1
  I  I47  1  0.79532095  0.48769398  0.78947315  1
