# generated using pymatgen
data_AlH12AuC2(I3N)2
_symmetry_space_group_name_H-M   'P 1'
_cell_length_a   8.88952025
_cell_length_b   10.99624179
_cell_length_c   8.86434680
_cell_angle_alpha   88.21002822
_cell_angle_beta   90.02564295
_cell_angle_gamma   90.00287260
_symmetry_Int_Tables_number   1
_chemical_formula_structural   AlH12AuC2(I3N)2
_chemical_formula_sum   'Al2 H24 Au2 C4 I12 N4'
_cell_volume   866.07864451
_cell_formula_units_Z   2
loop_
 _symmetry_equiv_pos_site_id
 _symmetry_equiv_pos_as_xyz
  1  'x, y, z'
loop_
 _atom_site_type_symbol
 _atom_site_label
 _atom_site_symmetry_multiplicity
 _atom_site_fract_x
 _atom_site_fract_y
 _atom_site_fract_z
 _atom_site_occupancy
  C  C0  1  0.50438590  0.22822620  0.43406705  1
  C  C1  1  0.00491507  0.27169019  0.06584441  1
  C  C2  1  0.50889541  0.75859975  0.56707069  1
  C  C3  1  0.00893796  0.74142534  0.93314835  1
  N  N4  1  0.56985104  0.23366815  0.58803197  1
  N  N5  1  0.06984972  0.26632357  0.91168349  1
  N  N6  1  0.46551460  0.76426108  0.40499520  1
  N  N7  1  0.96542648  0.73577254  0.09517871  1
  H  H8  1  0.59524252  0.23845721  0.35147704  1
  H  H9  1  0.44949625  0.13983795  0.42263498  1
  H  H10  1  0.42196159  0.30157590  0.41792297  1
  H  H11  1  0.65346514  0.16744789  0.60431786  1
  H  H12  1  0.61757344  0.31767448  0.60860633  1
  H  H13  1  0.48899179  0.21938963  0.67102190  1
  H  H14  1  0.09613133  0.26185797  0.14815188  1
  H  H15  1  0.92292016  0.19806404  0.08238358  1
  H  H16  1  0.94961194  0.35991038  0.07733164  1
  H  H17  1  0.11789857  0.18245179  0.89104870  1
  H  H18  1  0.15311801  0.33277763  0.89502160  1
  H  H19  1  0.98861853  0.28026996  0.82892789  1
  H  H20  1  0.40713111  0.74983559  0.63579201  1
  H  H21  1  0.58102597  0.67906567  0.58761151  1
  H  H22  1  0.57014057  0.84196512  0.59311832  1
  H  H23  1  0.39061814  0.83453721  0.37970019  1
  H  H24  1  0.41400334  0.68427762  0.37060086  1
  H  H25  1  0.55867259  0.77972606  0.33623041  1
  H  H26  1  0.90722183  0.75027602  0.86428814  1
  H  H27  1  0.08118368  0.82090431  0.91271583  1
  H  H28  1  0.07010372  0.65801660  0.90716107  1
  H  H29  1  0.91404642  0.81580383  0.12954713  1
  H  H30  1  0.89039233  0.66557774  0.12035850  1
  H  H31  1  0.05852803  0.72017177  0.16403915  1
  Al  Al32  1  0.40091081  0.99683020  0.98089721  1
  Al  Al33  1  0.90089967  0.50316548  0.51916448  1
  Au  Au34  1  0.81196982  0.99288867  0.54949880  1
  Au  Au35  1  0.31198241  0.50719512  0.95056550  1
  I  I36  1  0.50008044  0.21363384  0.01349811  1
  I  I37  1  0.21079488  0.97948934  0.20401514  1
  I  I38  1  0.75219368  0.97466330  0.26695081  1
  I  I39  1  0.00009802  0.28640895  0.48632797  1
  I  I40  1  0.27273379  0.01636644  0.71790758  1
  I  I41  1  0.82848680  0.02989378  0.83354198  1
  I  I42  1  0.52494981  0.78611806  0.97899504  1
  I  I43  1  0.71065901  0.52050288  0.29606687  1
  I  I44  1  0.25217373  0.52549811  0.23307795  1
  I  I45  1  0.02491041  0.71389806  0.52110092  1
  I  I46  1  0.32850417  0.47010428  0.66654153  1
  I  I47  1  0.77280309  0.48358260  0.78211734  1
