# generated using pymatgen
data_InBiH10C2(I3N2)2
_symmetry_space_group_name_H-M   'P 1'
_cell_length_a   8.73245305
_cell_length_b   12.35425335
_cell_length_c   8.72507093
_cell_angle_alpha   90.03152037
_cell_angle_beta   90.00016053
_cell_angle_gamma   89.99789776
_symmetry_Int_Tables_number   1
_chemical_formula_structural   InBiH10C2(I3N2)2
_chemical_formula_sum   'In2 Bi2 H20 C4 I12 N8'
_cell_volume   941.28613753
_cell_formula_units_Z   2
loop_
 _symmetry_equiv_pos_site_id
 _symmetry_equiv_pos_as_xyz
  1  'x, y, z'
loop_
 _atom_site_type_symbol
 _atom_site_label
 _atom_site_symmetry_multiplicity
 _atom_site_fract_x
 _atom_site_fract_y
 _atom_site_fract_z
 _atom_site_occupancy
  C  C0  1  0.49289071  0.28858158  0.49642295  1
  C  C1  1  0.99296076  0.21140517  0.00359887  1
  C  C2  1  0.50697697  0.78858603  0.50373279  1
  C  C3  1  0.00688357  0.71142524  0.99624851  1
  N  N4  1  0.58935492  0.24014745  0.58924749  1
  N  N5  1  0.39999198  0.23985243  0.40030326  1
  N  N6  1  0.08946609  0.25983790  0.91081231  1
  N  N7  1  0.90003836  0.26012985  0.09969664  1
  N  N8  1  0.60035611  0.73987621  0.59929169  1
  N  N9  1  0.41015244  0.74011935  0.41119375  1
  N  N10  1  0.10031265  0.76013868  0.90070604  1
  N  N11  1  0.91004682  0.75987917  0.08874494  1
  H  H12  1  0.48935900  0.37685170  0.49969455  1
  H  H13  1  0.65701829  0.28558146  0.65969784  1
  H  H14  1  0.60169425  0.15805679  0.59353238  1
  H  H15  1  0.32930666  0.28549273  0.33302747  1
  H  H16  1  0.39364503  0.15768324  0.38946367  1
  H  H17  1  0.98942616  0.12313249  0.00030108  1
  H  H18  1  0.15715903  0.21440396  0.84038904  1
  H  H19  1  0.10183268  0.34192794  0.90657571  1
  H  H20  1  0.82932160  0.21448833  0.16694217  1
  H  H21  1  0.89369161  0.34230168  0.11055412  1
  H  H22  1  0.51036848  0.87685718  0.50062073  1
  H  H23  1  0.67131296  0.78555688  0.66634809  1
  H  H24  1  0.60548027  0.65774543  0.61127443  1
  H  H25  1  0.34233246  0.78551624  0.34095210  1
  H  H26  1  0.39942831  0.65798214  0.40521071  1
  H  H27  1  0.01029007  0.62314699  0.99933228  1
  H  H28  1  0.17127781  0.71446196  0.83367566  1
  H  H29  1  0.10542021  0.84226321  0.88875058  1
  H  H30  1  0.84217272  0.71448106  0.15895589  1
  H  H31  1  0.89927957  0.84202831  0.09472798  1
  In  In32  1  0.50016808  0.99989920  0.99853748  1
  In  In33  1  0.00016987  0.50012902  0.50149020  1
  Bi  Bi34  1  0.00066164  0.00010754  0.49861486  1
  Bi  Bi35  1  0.50065137  0.49991583  0.00139837  1
  I  I36  1  0.49769161  0.25269404  0.99369310  1
  I  I37  1  0.19685516  0.98705522  0.20562792  1
  I  I38  1  0.70558385  0.01880645  0.30311692  1
  I  I39  1  0.99766332  0.24732630  0.50635994  1
  I  I40  1  0.29279635  0.01375003  0.69546596  1
  I  I41  1  0.80458098  0.98052408  0.79298280  1
  I  I42  1  0.50207529  0.74722922  0.00648935  1
  I  I43  1  0.69683438  0.51293007  0.29439283  1
  I  I44  1  0.20555668  0.48122232  0.19687824  1
  I  I45  1  0.00209926  0.75279348  0.49346230  1
  I  I46  1  0.30459937  0.51950879  0.70701446  1
  I  I47  1  0.79278359  0.48623261  0.80455430  1
