# generated using pymatgen
data_TlInH10C2(I3N2)2
_symmetry_space_group_name_H-M   'P 1'
_cell_length_a   8.69954429
_cell_length_b   12.18552397
_cell_length_c   8.69227416
_cell_angle_alpha   89.95835735
_cell_angle_beta   90.00019345
_cell_angle_gamma   90.00108601
_symmetry_Int_Tables_number   1
_chemical_formula_structural   TlInH10C2(I3N2)2
_chemical_formula_sum   'Tl2 In2 H20 C4 I12 N8'
_cell_volume   921.45474906
_cell_formula_units_Z   2
loop_
 _symmetry_equiv_pos_site_id
 _symmetry_equiv_pos_as_xyz
  1  'x, y, z'
loop_
 _atom_site_type_symbol
 _atom_site_label
 _atom_site_symmetry_multiplicity
 _atom_site_fract_x
 _atom_site_fract_y
 _atom_site_fract_z
 _atom_site_occupancy
  C  C0  1  0.49316902  0.28879592  0.49612669  1
  C  C1  1  0.99324019  0.21119109  0.00389696  1
  C  C2  1  0.50712699  0.78882677  0.50350047  1
  C  C3  1  0.00704263  0.71117829  0.99647417  1
  N  N4  1  0.59052310  0.23971946  0.58887495  1
  N  N5  1  0.39910706  0.23945678  0.40050746  1
  N  N6  1  0.09062713  0.26027135  0.91118622  1
  N  N7  1  0.89915371  0.26052596  0.09949388  1
  N  N8  1  0.60016483  0.73945276  0.60020754  1
  N  N9  1  0.41055322  0.73977718  0.41003636  1
  N  N10  1  0.10010469  0.76056412  0.89980026  1
  N  N11  1  0.91043646  0.76021893  0.08990436  1
  H  H12  1  0.48983942  0.37825270  0.49913180  1
  H  H13  1  0.65910865  0.28589595  0.65872588  1
  H  H14  1  0.60010011  0.15641301  0.59636940  1
  H  H15  1  0.32747984  0.28590769  0.33381064  1
  H  H16  1  0.39478613  0.15623405  0.38747338  1
  H  H17  1  0.98990300  0.12173518  0.00087770  1
  H  H18  1  0.15924060  0.21409661  0.84136395  1
  H  H19  1  0.10023622  0.34357762  0.90372726  1
  H  H20  1  0.82750046  0.21407214  0.16616119  1
  H  H21  1  0.89483798  0.34374787  0.11253613  1
  H  H22  1  0.51063844  0.87827288  0.50025612  1
  H  H23  1  0.67040393  0.78586509  0.66831339  1
  H  H24  1  0.60788008  0.65612696  0.60998509  1
  H  H25  1  0.34319911  0.78599511  0.33893912  1
  H  H26  1  0.39704596  0.65660468  0.40664496  1
  H  H27  1  0.01056109  0.62173377  0.99971198  1
  H  H28  1  0.17037559  0.71415534  0.83171079  1
  H  H29  1  0.10781942  0.84388833  0.89002995  1
  H  H30  1  0.84304956  0.71399607  0.16096434  1
  H  H31  1  0.89690061  0.84339046  0.09327738  1
  In  In32  1  0.49904534  0.99990083  0.99865598  1
  In  In33  1  0.99904637  0.50012305  0.50136798  1
  Tl  Tl34  1  0.99978206  0.00015336  0.49845602  1
  Tl  Tl35  1  0.49977448  0.49987599  0.00156516  1
  I  I36  1  0.49822798  0.23590602  0.99331475  1
  I  I37  1  0.21496790  0.98696391  0.18678062  1
  I  I38  1  0.68695246  0.01821409  0.28425466  1
  I  I39  1  0.99820308  0.26411705  0.50673775  1
  I  I40  1  0.31199264  0.01148235  0.71374292  1
  I  I41  1  0.78527509  0.98321543  0.81160695  1
  I  I42  1  0.50270828  0.76398286  0.00625706  1
  I  I43  1  0.71494789  0.51301097  0.31324966  1
  I  I44  1  0.18693282  0.48180134  0.21574529  1
  I  I45  1  0.00273751  0.73603621  0.49367992  1
  I  I46  1  0.28528485  0.51682555  0.68839490  1
  I  I47  1  0.81198538  0.48851385  0.78627535  1
