# generated using pymatgen
data_InH10IrC2(I3N2)2
_symmetry_space_group_name_H-M   'P 1'
_cell_length_a   8.46900296
_cell_length_b   11.63986167
_cell_length_c   8.45695003
_cell_angle_alpha   90.13309334
_cell_angle_beta   89.99947738
_cell_angle_gamma   89.99526499
_symmetry_Int_Tables_number   1
_chemical_formula_structural   InH10IrC2(I3N2)2
_chemical_formula_sum   'In2 H20 Ir2 C4 I12 N8'
_cell_volume   833.66716208
_cell_formula_units_Z   2
loop_
 _symmetry_equiv_pos_site_id
 _symmetry_equiv_pos_as_xyz
  1  'x, y, z'
loop_
 _atom_site_type_symbol
 _atom_site_label
 _atom_site_symmetry_multiplicity
 _atom_site_fract_x
 _atom_site_fract_y
 _atom_site_fract_z
 _atom_site_occupancy
  C  C0  1  0.49409936  0.28970026  0.49653854  1
  C  C1  1  0.99417143  0.21029020  0.00346479  1
  C  C2  1  0.50571255  0.78968756  0.50400156  1
  C  C3  1  0.00566499  0.71032065  0.99595350  1
  N  N4  1  0.59297622  0.23847646  0.59250600  1
  N  N5  1  0.39857087  0.23788185  0.39771074  1
  N  N6  1  0.09308643  0.26151807  0.90753676  1
  N  N7  1  0.89862787  0.26211109  0.10229422  1
  N  N8  1  0.60215802  0.73784956  0.60174682  1
  N  N9  1  0.40620337  0.73846703  0.40853409  1
  N  N10  1  0.10208218  0.76215420  0.89828110  1
  N  N11  1  0.90607976  0.76154029  0.09145205  1
  H  H12  1  0.49079108  0.38333202  0.49939584  1
  H  H13  1  0.66110183  0.28742357  0.66620801  1
  H  H14  1  0.60775040  0.15145117  0.59697470  1
  H  H15  1  0.32755686  0.28676231  0.32691194  1
  H  H16  1  0.38867815  0.15064071  0.38784265  1
  H  H17  1  0.99084963  0.11666284  0.00056584  1
  H  H18  1  0.16121685  0.21256812  0.83383422  1
  H  H19  1  0.10787816  0.34853507  0.90311068  1
  H  H20  1  0.82759577  0.21322895  0.17305692  1
  H  H21  1  0.88874743  0.34935266  0.11218574  1
  H  H22  1  0.50889665  0.88332161  0.50186433  1
  H  H23  1  0.67621182  0.78677246  0.66962398  1
  H  H24  1  0.60717381  0.65076551  0.61588873  1
  H  H25  1  0.33513429  0.78737803  0.33791025  1
  H  H26  1  0.39649062  0.65128593  0.39830983  1
  H  H27  1  0.00883066  0.61668428  0.99810431  1
  H  H28  1  0.17617968  0.71323711  0.83039114  1
  H  H29  1  0.10710967  0.84924944  0.88413888  1
  H  H30  1  0.83502088  0.71262476  0.16202796  1
  H  H31  1  0.89636286  0.84871570  0.10166315  1
  In  In32  1  0.49873047  0.99996921  0.99811990  1
  In  In33  1  0.99873925  0.50004601  0.50191392  1
  Ir  Ir34  1  0.00027470  0.00000854  0.49851741  1
  Ir  Ir35  1  0.50026914  0.50000227  0.00149224  1
  I  I36  1  0.49784326  0.26643279  0.99716672  1
  I  I37  1  0.19511256  0.99122052  0.24265874  1
  I  I38  1  0.74525825  0.00816369  0.30269753  1
  I  I39  1  0.99778783  0.23357923  0.50288363  1
  I  I40  1  0.25603161  0.01009928  0.69324445  1
  I  I41  1  0.80502933  0.99046902  0.75400135  1
  I  I42  1  0.50223060  0.73357732  0.00418548  1
  I  I43  1  0.69510642  0.50878088  0.25734750  1
  I  I44  1  0.24524506  0.49186913  0.19730739  1
  I  I45  1  0.00229364  0.76643328  0.49577541  1
  I  I46  1  0.30503200  0.50954188  0.74600344  1
  I  I47  1  0.75602506  0.48988042  0.80676037  1
