# generated using pymatgen
data_SnH10PbC2(I3N2)2
_symmetry_space_group_name_H-M   'P 1'
_cell_length_a   8.70455245
_cell_length_b   12.37367143
_cell_length_c   8.69796150
_cell_angle_alpha   89.99526448
_cell_angle_beta   90.00001173
_cell_angle_gamma   89.99789211
_symmetry_Int_Tables_number   1
_chemical_formula_structural   SnH10PbC2(I3N2)2
_chemical_formula_sum   'Sn2 H20 Pb2 C4 I12 N8'
_cell_volume   936.83370118
_cell_formula_units_Z   2
loop_
 _symmetry_equiv_pos_site_id
 _symmetry_equiv_pos_as_xyz
  1  'x, y, z'
loop_
 _atom_site_type_symbol
 _atom_site_label
 _atom_site_symmetry_multiplicity
 _atom_site_fract_x
 _atom_site_fract_y
 _atom_site_fract_z
 _atom_site_occupancy
  C  C0  1  0.49278575  0.28892591  0.49645991  1
  C  C1  1  0.99286398  0.21105967  0.00356418  1
  C  C2  1  0.50723564  0.78893902  0.50352340  1
  C  C3  1  0.00714358  0.71107008  0.99644220  1
  N  N4  1  0.58967953  0.24041470  0.58927555  1
  N  N5  1  0.39924727  0.24021692  0.40045060  1
  N  N6  1  0.08979343  0.25957193  0.91079410  1
  N  N7  1  0.89929249  0.25976550  0.09954971  1
  N  N8  1  0.60061961  0.74023184  0.59964343  1
  N  N9  1  0.41045217  0.74042463  0.41055400  1
  N  N10  1  0.10055904  0.75978781  0.90036393  1
  N  N11  1  0.91032241  0.75957273  0.08938303  1
  H  H12  1  0.48939880  0.37707081  0.49964185  1
  H  H13  1  0.65803621  0.28551070  0.65978697  1
  H  H14  1  0.60048532  0.15837306  0.59429284  1
  H  H15  1  0.32798765  0.28561844  0.33312426  1
  H  H16  1  0.39413987  0.15817599  0.38918864  1
  H  H17  1  0.98947447  0.12291492  0.00036290  1
  H  H18  1  0.15818885  0.21447428  0.84031486  1
  H  H19  1  0.10063195  0.34161219  0.90581903  1
  H  H20  1  0.82800640  0.21436176  0.16683869  1
  H  H21  1  0.89418324  0.34180457  0.11082411  1
  H  H22  1  0.51057387  0.87708030  0.50032282  1
  H  H23  1  0.67161440  0.78563593  0.66729496  1
  H  H24  1  0.60634089  0.65815498  0.61035962  1
  H  H25  1  0.34237445  0.78551942  0.33981379  1
  H  H26  1  0.39907181  0.65841556  0.40618013  1
  H  H27  1  0.01048376  0.62292137  0.99962808  1
  H  H28  1  0.17158656  0.71438306  0.83272844  1
  H  H29  1  0.10627638  0.84185401  0.88966861  1
  H  H30  1  0.84220935  0.71447803  0.16006764  1
  H  H31  1  0.89891281  0.84158221  0.09373963  1
  Sn  Sn32  1  0.49956825  0.99987020  0.99904001  1
  Sn  Sn33  1  0.99957440  0.50016559  0.50098987  1
  Pb  Pb34  1  1.00003243  0.00016611  0.49903259  1
  Pb  Pb35  1  0.50002669  0.49986954  0.00098750  1
  I  I36  1  0.49771874  0.24743094  0.99295842  1
  I  I37  1  0.20046573  0.98469668  0.19453930  1
  I  I38  1  0.69410484  0.02206301  0.30030572  1
  I  I39  1  0.99770063  0.25259498  0.50710753  1
  I  I40  1  0.30418773  0.01515164  0.69915200  1
  I  I41  1  0.80159106  0.97807342  0.80459230  1
  I  I42  1  0.50237536  0.75248825  0.00705567  1
  I  I43  1  0.70044192  0.51526596  0.30549199  1
  I  I44  1  0.19407986  0.47796680  0.19969749  1
  I  I45  1  0.00239729  0.74753707  0.49287655  1
  I  I46  1  0.30160825  0.52197178  0.69540414  1
  I  I47  1  0.80417421  0.48482865  0.80087175  1
