# generated using pymatgen
data_BaSnH10C2(I3N2)2
_symmetry_space_group_name_H-M   'P 1'
_cell_length_a   8.83042107
_cell_length_b   12.85320333
_cell_length_c   8.81650784
_cell_angle_alpha   89.84426384
_cell_angle_beta   89.99945801
_cell_angle_gamma   89.99814951
_symmetry_Int_Tables_number   1
_chemical_formula_structural   BaSnH10C2(I3N2)2
_chemical_formula_sum   'Ba2 Sn2 H20 C4 I12 N8'
_cell_volume   1000.66286783
_cell_formula_units_Z   2
loop_
 _symmetry_equiv_pos_site_id
 _symmetry_equiv_pos_as_xyz
  1  'x, y, z'
loop_
 _atom_site_type_symbol
 _atom_site_label
 _atom_site_symmetry_multiplicity
 _atom_site_fract_x
 _atom_site_fract_y
 _atom_site_fract_z
 _atom_site_occupancy
  C  C0  1  0.49829191  0.30327599  0.50647162  1
  C  C1  1  0.99826696  0.19680284  0.99346629  1
  C  C2  1  0.50096923  0.80341482  0.49284253  1
  C  C3  1  0.00087889  0.69650983  0.00717439  1
  N  N4  1  0.60709268  0.25876741  0.58473008  1
  N  N5  1  0.42405346  0.25939787  0.39442598  1
  N  N6  1  0.10712894  0.24131772  0.91529965  1
  N  N7  1  0.92403243  0.24064285  0.10554831  1
  N  N8  1  0.57504030  0.75938474  0.60502047  1
  N  N9  1  0.39245664  0.75888028  0.41428576  1
  N  N10  1  0.07502535  0.74061091  0.89510548  1
  N  N11  1  0.89236980  0.74100822  0.08578276  1
  H  H12  1  0.46568004  0.38232364  0.53827955  1
  H  H13  1  0.66118292  0.29926314  0.66820663  1
  H  H14  1  0.64472773  0.18553275  0.56092894  1
  H  H15  1  0.34254638  0.30098343  0.33838175  1
  H  H16  1  0.45237297  0.18740809  0.35413935  1
  H  H17  1  0.96560595  0.11778881  0.96153986  1
  H  H18  1  0.16121155  0.20085937  0.83177094  1
  H  H19  1  0.14482909  0.31451891  0.93923174  1
  H  H20  1  0.84248150  0.19905911  0.16151794  1
  H  H21  1  0.95239567  0.31259484  0.14593391  1
  H  H22  1  0.53330161  0.88262028  0.46093951  1
  H  H23  1  0.65360726  0.80156981  0.66393958  1
  H  H24  1  0.54889631  0.68637465  0.64290767  1
  H  H25  1  0.34147312  0.79874990  0.32790841  1
  H  H26  1  0.35207910  0.68655369  0.44070356  1
  H  H27  1  0.03314891  0.61726472  0.03893281  1
  H  H28  1  0.15359941  0.69845080  0.83614032  1
  H  H29  1  0.04896458  0.81367321  0.85735393  1
  H  H30  1  0.84132091  0.70106479  0.17204345  1
  H  H31  1  0.85203624  0.81336526  0.05949828  1
  Sn  Sn32  1  0.49091878  0.00187271  0.98693708  1
  Sn  Sn33  1  0.99096259  0.49814303  0.51300603  1
  Ba  Ba34  1  0.00943747  0.99815630  0.48631688  1
  Ba  Ba35  1  0.50945078  0.50184492  0.01362298  1
  I  I36  1  0.50626976  0.24371560  0.98818229  1
  I  I37  1  0.18646637  0.97264756  0.15375170  1
  I  I38  1  0.68052438  0.03562448  0.29719803  1
  I  I39  1  0.00628111  0.25628809  0.51179765  1
  I  I40  1  0.33395788  0.02839167  0.67808700  1
  I  I41  1  0.80521985  0.96457559  0.80936111  1
  I  I42  1  0.49360163  0.76005352  0.00718381  1
  I  I43  1  0.68652681  0.52730088  0.34614777  1
  I  I44  1  0.18055585  0.46439245  0.20277927  1
  I  I45  1  0.99359471  0.73995576  0.49288154  1
  I  I46  1  0.30524275  0.53544352  0.69059524  1
  I  I47  1  0.83394079  0.47162420  0.82180493  1
