# generated using pymatgen
data_TlSbH10C2(I3N2)2
_symmetry_space_group_name_H-M   'P 1'
_cell_length_a   8.73546712
_cell_length_b   12.38885204
_cell_length_c   8.72817474
_cell_angle_alpha   89.94189780
_cell_angle_beta   90.00046095
_cell_angle_gamma   89.99874205
_symmetry_Int_Tables_number   1
_chemical_formula_structural   TlSbH10C2(I3N2)2
_chemical_formula_sum   'Tl2 Sb2 H20 C4 I12 N8'
_cell_volume   944.58361599
_cell_formula_units_Z   2
loop_
 _symmetry_equiv_pos_site_id
 _symmetry_equiv_pos_as_xyz
  1  'x, y, z'
loop_
 _atom_site_type_symbol
 _atom_site_label
 _atom_site_symmetry_multiplicity
 _atom_site_fract_x
 _atom_site_fract_y
 _atom_site_fract_z
 _atom_site_occupancy
  C  C0  1  0.49292202  0.28860156  0.49626262  1
  C  C1  1  0.99299551  0.21138411  0.00376273  1
  C  C2  1  0.50721566  0.78862669  0.50349819  1
  C  C3  1  0.00712636  0.71138049  0.99647678  1
  N  N4  1  0.58992805  0.24022610  0.58850178  1
  N  N5  1  0.39936212  0.24005443  0.40094667  1
  N  N6  1  0.09003413  0.25976313  0.91156459  1
  N  N7  1  0.89940869  0.25992701  0.09905611  1
  N  N8  1  0.59987003  0.74003229  0.59984023  1
  N  N9  1  0.41101759  0.74029721  0.41055911  1
  N  N10  1  0.09981473  0.75998133  0.90016704  1
  N  N11  1  0.91089566  0.75970207  0.08938200  1
  H  H12  1  0.48947627  0.37658460  0.49944458  1
  H  H13  1  0.65822387  0.28546662  0.65823568  1
  H  H14  1  0.59968332  0.15827991  0.59541219  1
  H  H15  1  0.32793407  0.28559292  0.33450969  1
  H  H16  1  0.39535938  0.15819053  0.38799399  1
  H  H17  1  0.98954411  0.12340280  0.00056576  1
  H  H18  1  0.15836834  0.21452043  0.84185439  1
  H  H19  1  0.09982293  0.34171138  0.90469068  1
  H  H20  1  0.82795933  0.21439049  0.16545682  1
  H  H21  1  0.89541100  0.34178910  0.11201843  1
  H  H22  1  0.51073972  0.87661042  0.50015881  1
  H  H23  1  0.66997281  0.78552971  0.66755484  1
  H  H24  1  0.60712427  0.65805974  0.60969942  1
  H  H25  1  0.34385687  0.78558618  0.33962817  1
  H  H26  1  0.39768399  0.65848702  0.40742090  1
  H  H27  1  0.01065686  0.62339429  0.99980396  1
  H  H28  1  0.16995447  0.71447662  0.83246080  1
  H  H29  1  0.10707252  0.84194695  0.89031341  1
  H  H30  1  0.84371016  0.71442092  0.16025995  1
  H  H31  1  0.89754168  0.84151658  0.09249788  1
  Sb  Sb32  1  0.49924336  0.99991383  0.99882412  1
  Sb  Sb33  1  0.99924170  0.50010940  0.50120032  1
  Tl  Tl34  1  0.99952219  0.00013557  0.49861965  1
  Tl  Tl35  1  0.49951472  0.49989304  0.00140201  1
  I  I36  1  0.49789611  0.24062220  0.99317586  1
  I  I37  1  0.21125860  0.98625902  0.18745539  1
  I  I38  1  0.68747256  0.01990017  0.28931821  1
  I  I39  1  0.99787836  0.25940171  0.50688178  1
  I  I40  1  0.31123652  0.01247057  0.70984252  1
  I  I41  1  0.79055318  0.98121742  0.81106704  1
  I  I42  1  0.50250288  0.75929245  0.00666028  1
  I  I43  1  0.71123877  0.51371515  0.31257804  1
  I  I44  1  0.18745133  0.48011906  0.21068859  1
  I  I45  1  0.00252909  0.74072963  0.49327668  1
  I  I46  1  0.29056320  0.51882519  0.68893598  1
  I  I47  1  0.81123025  0.48752490  0.79018011  1
