# generated using pymatgen
data_BaH10PbC2(I3N2)2
_symmetry_space_group_name_H-M   'P 1'
_cell_length_a   8.85694895
_cell_length_b   12.97308587
_cell_length_c   8.81919207
_cell_angle_alpha   90.09255011
_cell_angle_beta   89.99373803
_cell_angle_gamma   89.99646920
_symmetry_Int_Tables_number   1
_chemical_formula_structural   BaH10PbC2(I3N2)2
_chemical_formula_sum   'Ba2 H20 Pb2 C4 I12 N8'
_cell_volume   1013.34111745
_cell_formula_units_Z   2
loop_
 _symmetry_equiv_pos_site_id
 _symmetry_equiv_pos_as_xyz
  1  'x, y, z'
loop_
 _atom_site_type_symbol
 _atom_site_label
 _atom_site_symmetry_multiplicity
 _atom_site_fract_x
 _atom_site_fract_y
 _atom_site_fract_z
 _atom_site_occupancy
  C  C0  1  0.49909136  0.30523596  0.50680926  1
  C  C1  1  0.99910229  0.19476704  0.99314201  1
  C  C2  1  0.50124027  0.80514764  0.49347453  1
  C  C3  1  0.00115540  0.69485623  0.00654137  1
  N  N4  1  0.60717978  0.26068457  0.58493984  1
  N  N5  1  0.42442345  0.26208836  0.39483346  1
  N  N6  1  0.10725620  0.23931515  0.91509047  1
  N  N7  1  0.92440485  0.23788391  0.10514923  1
  N  N8  1  0.57588426  0.76210717  0.60549725  1
  N  N9  1  0.39301791  0.76064319  0.41549284  1
  N  N10  1  0.07587871  0.73797026  0.89462974  1
  N  N11  1  0.89290097  0.73932459  0.08456890  1
  H  H12  1  0.46776261  0.38383886  0.53873526  1
  H  H13  1  0.65876660  0.29994721  0.67098618  1
  H  H14  1  0.64597644  0.18857616  0.55911280  1
  H  H15  1  0.34570956  0.30412459  0.33671126  1
  H  H16  1  0.44969336  0.18974113  0.35660550  1
  H  H17  1  0.96773535  0.11619234  0.96112264  1
  H  H18  1  0.15886192  0.20006647  0.82902243  1
  H  H19  1  0.14609757  0.31139279  0.94100982  1
  H  H20  1  0.84563541  0.19584575  0.16319749  1
  H  H21  1  0.94969028  0.31020054  0.14346905  1
  H  H22  1  0.53286001  0.88362355  0.46158223  1
  H  H23  1  0.65628425  0.80384373  0.66187369  1
  H  H24  1  0.54936773  0.69032186  0.64513073  1
  H  H25  1  0.33985624  0.80012238  0.33081481  1
  H  H26  1  0.35572221  0.68808491  0.43987846  1
  H  H27  1  0.03271484  0.61634259  0.03830439  1
  H  H28  1  0.15629260  0.69626219  0.83820127  1
  H  H29  1  0.04942662  0.80979854  0.85512772  1
  H  H30  1  0.83964662  0.69977350  0.16912506  1
  H  H31  1  0.85564917  0.81191029  0.06030399  1
  Ba  Ba32  1  0.49156025  0.00232770  0.98871323  1
  Ba  Ba33  1  0.99167931  0.49768913  0.51125608  1
  Pb  Pb34  1  0.00977058  0.99763975  0.48846525  1
  Pb  Pb35  1  0.50986024  0.50236855  0.01144788  1
  I  I36  1  0.50587488  0.25844210  0.99000299  1
  I  I37  1  0.16499813  0.96805978  0.17233502  1
  I  I38  1  0.69125165  0.03875374  0.31321318  1
  I  I39  1  0.00578689  0.24156509  0.50996512  1
  I  I40  1  0.31952184  0.03089077  0.65472764  1
  I  I41  1  0.82047467  0.96113869  0.80237522  1
  I  I42  1  0.49356368  0.74604261  0.01221967  1
  I  I43  1  0.66520675  0.53188513  0.32749228  1
  I  I44  1  0.19133752  0.46122141  0.18671612  1
  I  I45  1  0.99359532  0.75397027  0.48784642  1
  I  I46  1  0.32056251  0.53894055  0.69755455  1
  I  I47  1  0.81969026  0.46909425  0.84529042  1
