# generated using pymatgen
data_BaHgH10C2(I3N2)2
_symmetry_space_group_name_H-M   'P 1'
_cell_length_a   7.94942465
_cell_length_b   13.29676766
_cell_length_c   9.16194523
_cell_angle_alpha   89.51154606
_cell_angle_beta   89.99904579
_cell_angle_gamma   89.99846104
_symmetry_Int_Tables_number   1
_chemical_formula_structural   BaHgH10C2(I3N2)2
_chemical_formula_sum   'Ba2 Hg2 H20 C4 I12 N8'
_cell_volume   968.39755992
_cell_formula_units_Z   2
loop_
 _symmetry_equiv_pos_site_id
 _symmetry_equiv_pos_as_xyz
  1  'x, y, z'
loop_
 _atom_site_type_symbol
 _atom_site_label
 _atom_site_symmetry_multiplicity
 _atom_site_fract_x
 _atom_site_fract_y
 _atom_site_fract_z
 _atom_site_occupancy
  C  C0  1  0.47678990  0.32054568  0.49877891  1
  C  C1  1  0.97679445  0.17946858  0.00117975  1
  C  C2  1  0.52821881  0.81433657  0.50233199  1
  C  C3  1  0.02811754  0.68564635  0.99770440  1
  N  N4  1  0.57013640  0.30213094  0.61430920  1
  N  N5  1  0.48750410  0.27254872  0.37480017  1
  N  N6  1  0.07020035  0.19791460  0.88569543  1
  N  N7  1  0.98746639  0.22740787  0.12519930  1
  N  N8  1  0.53508711  0.76077041  0.62334540  1
  N  N9  1  0.42745982  0.79684661  0.39230415  1
  N  N10  1  0.03507872  0.73924665  0.87671975  1
  N  N11  1  0.92736484  0.70317869  0.10774679  1
  H  H12  1  0.38366553  0.38056812  0.50693012  1
  H  H13  1  0.55075675  0.34108417  0.70853633  1
  H  H14  1  0.67163421  0.25446494  0.61044976  1
  H  H15  1  0.41611446  0.29545887  0.28788907  1
  H  H16  1  0.56800076  0.21333828  0.35837016  1
  H  H17  1  0.88365283  0.11946305  0.99293933  1
  H  H18  1  0.05083838  0.15901422  0.79142436  1
  H  H19  1  0.17170927  0.24556733  0.88962887  1
  H  H20  1  0.91601807  0.20447050  0.21206315  1
  H  H21  1  0.06796023  0.28660507  0.14170462  1
  H  H22  1  0.61455302  0.87793717  0.49189146  1
  H  H23  1  0.61482039  0.78293131  0.70419596  1
  H  H24  1  0.46014173  0.69943910  0.64451436  1
  H  H25  1  0.42551093  0.84507781  0.30506939  1
  H  H26  1  0.33144508  0.74564381  0.39846250  1
  H  H27  1  0.11434012  0.62199270  0.00812193  1
  H  H28  1  0.11477944  0.71705614  0.79585792  1
  H  H29  1  0.96020246  0.80061262  0.85556181  1
  H  H30  1  0.92528889  0.65491062  0.19494008  1
  H  H31  1  0.83144374  0.75444371  0.10160179  1
  Ba  Ba32  1  0.46952078  0.00488738  0.95220574  1
  Ba  Ba33  1  0.96953514  0.49509638  0.54774177  1
  Hg  Hg34  1  0.00905171  0.97618638  0.45237159  1
  Hg  Hg35  1  0.50902578  0.52381891  0.04760941  1
  I  I36  1  0.48734321  0.25055273  0.99358506  1
  I  I37  1  0.13860443  0.94772810  0.15482706  1
  I  I38  1  0.69271263  0.03325386  0.29376141  1
  I  I39  1  0.98726376  0.24942222  0.50640619  1
  I  I40  1  0.30997359  0.03157662  0.60531718  1
  I  I41  1  0.82230525  0.97151004  0.75472067  1
  I  I42  1  0.50898887  0.75179399  0.00794807  1
  I  I43  1  0.63859822  0.55227276  0.34516546  1
  I  I44  1  0.19272311  0.46669905  0.20619441  1
  I  I45  1  0.00907261  0.74819847  0.49207997  1
  I  I46  1  0.32226581  0.52850192  0.74526295  1
  I  I47  1  0.80993974  0.46844296  0.89463962  1
