# generated using pymatgen
data_BaH10PtC2(I3N2)2
_symmetry_space_group_name_H-M   'P 1'
_cell_length_a   8.57761108
_cell_length_b   11.54431767
_cell_length_c   9.50348006
_cell_angle_alpha   93.05866422
_cell_angle_beta   90.00481817
_cell_angle_gamma   89.98471981
_symmetry_Int_Tables_number   1
_chemical_formula_structural   BaH10PtC2(I3N2)2
_chemical_formula_sum   'Ba2 H20 Pt2 C4 I12 N8'
_cell_volume   939.71929707
_cell_formula_units_Z   2
loop_
 _symmetry_equiv_pos_site_id
 _symmetry_equiv_pos_as_xyz
  1  'x, y, z'
loop_
 _atom_site_type_symbol
 _atom_site_label
 _atom_site_symmetry_multiplicity
 _atom_site_fract_x
 _atom_site_fract_y
 _atom_site_fract_z
 _atom_site_occupancy
  C  C0  1  0.49320438  0.29342301  0.48640394  1
  C  C1  1  0.99359373  0.20661696  0.01348541  1
  C  C2  1  0.52196288  0.80039806  0.50540638  1
  C  C3  1  0.02178253  0.69955101  0.99455118  1
  N  N4  1  0.58374133  0.24425271  0.57814837  1
  N  N5  1  0.42502944  0.24052998  0.37782619  1
  N  N6  1  0.08430118  0.25580122  0.92193585  1
  N  N7  1  0.92576776  0.25939134  0.12234788  1
  N  N8  1  0.57978158  0.75240906  0.61756062  1
  N  N9  1  0.41500050  0.75455517  0.42166234  1
  N  N10  1  0.07953800  0.74748839  0.88236450  1
  N  N11  1  0.91478787  0.74542018  0.07826639  1
  H  H12  1  0.47011197  0.38609984  0.50406963  1
  H  H13  1  0.63070402  0.29357855  0.65995745  1
  H  H14  1  0.62316258  0.16116117  0.56196257  1
  H  H15  1  0.35754563  0.28833789  0.31332142  1
  H  H16  1  0.43224830  0.15324811  0.35312616  1
  H  H17  1  0.97001448  0.11405144  0.99539037  1
  H  H18  1  0.13087400  0.20658975  0.83983076  1
  H  H19  1  0.12409581  0.33875595  0.93843091  1
  H  H20  1  0.85806918  0.21160290  0.18666168  1
  H  H21  1  0.93340584  0.34659980  0.14737603  1
  H  H22  1  0.56887197  0.88480289  0.47927172  1
  H  H23  1  0.66418021  0.79710291  0.67519601  1
  H  H24  1  0.53347285  0.67721892  0.65349660  1
  H  H25  1  0.37170901  0.80169999  0.34168136  1
  H  H26  1  0.36585034  0.67557156  0.43763112  1
  H  H27  1  0.06876973  0.61516961  0.02074591  1
  H  H28  1  0.16408805  0.70283970  0.82483025  1
  H  H29  1  0.03324197  0.82271102  0.84642854  1
  H  H30  1  0.87153739  0.69829214  0.15825577  1
  H  H31  1  0.86556185  0.82438919  0.06224564  1
  Ba  Ba32  1  0.43988575  0.96492093  0.91921185  1
  Ba  Ba33  1  0.93996442  0.53528320  0.58082675  1
  Pt  Pt34  1  0.98813667  0.02361343  0.48343805  1
  Pt  Pt35  1  0.48830122  0.47641594  0.01660662  1
  I  I36  1  0.50096067  0.24872166  0.99702250  1
  I  I37  1  0.24377969  0.98958037  0.20521273  1
  I  I38  1  0.74505743  0.02612671  0.31308395  1
  I  I39  1  1.00043035  0.25130328  0.50359679  1
  I  I40  1  0.24630015  0.02691875  0.63700835  1
  I  I41  1  0.80533348  0.96562710  0.81713528  1
  I  I42  1  0.49238780  0.70441718  0.04514462  1
  I  I43  1  0.74405920  0.51039250  0.29468629  1
  I  I44  1  0.24530577  0.47410118  0.18704792  1
  I  I45  1  0.99239234  0.79563596  0.45459181  1
  I  I46  1  0.30544156  0.53441686  0.68279891  1
  I  I47  1  0.74627649  0.47292752  0.86282337  1
