# generated using pymatgen
data_BaH10OsC2(I3N2)2
_symmetry_space_group_name_H-M   'P 1'
_cell_length_a   8.52022239
_cell_length_b   11.93856828
_cell_length_c   8.51052115
_cell_angle_alpha   90.05903429
_cell_angle_beta   89.99987456
_cell_angle_gamma   89.99682293
_symmetry_Int_Tables_number   1
_chemical_formula_structural   BaH10OsC2(I3N2)2
_chemical_formula_sum   'Ba2 H20 Os2 C4 I12 N8'
_cell_volume   865.68342574
_cell_formula_units_Z   2
loop_
 _symmetry_equiv_pos_site_id
 _symmetry_equiv_pos_as_xyz
  1  'x, y, z'
loop_
 _atom_site_type_symbol
 _atom_site_label
 _atom_site_symmetry_multiplicity
 _atom_site_fract_x
 _atom_site_fract_y
 _atom_site_fract_z
 _atom_site_occupancy
  C  C0  1  0.49355068  0.28876806  0.49649438  1
  C  C1  1  0.99361807  0.21122080  0.00351263  1
  C  C2  1  0.50640177  0.78876967  0.50407034  1
  C  C3  1  0.00633805  0.71123964  0.99590247  1
  N  N4  1  0.59254325  0.23864699  0.59119646  1
  N  N5  1  0.39818648  0.23830532  0.39840424  1
  N  N6  1  0.09264282  0.26134378  0.90885554  1
  N  N7  1  0.89823726  0.26168175  0.10160137  1
  N  N8  1  0.60174134  0.73840080  0.60215773  1
  N  N9  1  0.40781010  0.73855580  0.40894047  1
  N  N10  1  0.10169205  0.76161025  0.89785385  1
  N  N11  1  0.90771337  0.76145035  0.09102552  1
  H  H12  1  0.49001036  0.38005673  0.49977757  1
  H  H13  1  0.65961919  0.28569407  0.66569958  1
  H  H14  1  0.60929450  0.15394961  0.59228959  1
  H  H15  1  0.32790505  0.28563615  0.32728476  1
  H  H16  1  0.38674059  0.15327206  0.39130584  1
  H  H17  1  0.99006014  0.11993349  0.00019451  1
  H  H18  1  0.15973434  0.21429667  0.83435417  1
  H  H19  1  0.10942177  0.34603832  0.90780797  1
  H  H20  1  0.82793326  0.21434976  0.17268744  1
  H  H21  1  0.88680476  0.34671403  0.10872322  1
  H  H22  1  0.50970150  0.88006790  0.50112925  1
  H  H23  1  0.67643493  0.78573817  0.66879994  1
  H  H24  1  0.60359007  0.65366175  0.61870889  1
  H  H25  1  0.33613722  0.78559788  0.33902871  1
  H  H26  1  0.40087220  0.65352859  0.39780076  1
  H  H27  1  0.00963718  0.61994053  0.99882558  1
  H  H28  1  0.17640884  0.71427779  0.83121413  1
  H  H29  1  0.10354669  0.84635660  0.88132038  1
  H  H30  1  0.83602241  0.71440283  0.16089468  1
  H  H31  1  0.90076010  0.84647298  0.10216822  1
  Ba  Ba32  1  0.49887308  0.99996738  0.99819253  1
  Ba  Ba33  1  0.99887006  0.50004734  0.50182503  1
  Os  Os34  1  0.99995178  0.00001425  0.49858104  1
  Os  Os35  1  0.49994499  0.49999778  0.00142904  1
  I  I36  1  0.49768952  0.27329997  0.99542364  1
  I  I37  1  0.18315985  0.99289468  0.23662171  1
  I  I38  1  0.73854929  0.00998244  0.31452774  1
  I  I39  1  0.99764533  0.22671371  0.50462917  1
  I  I40  1  0.26212441  0.00878004  0.68116024  1
  I  I41  1  0.81689707  0.98832117  0.76071411  1
  I  I42  1  0.50222741  0.72670745  0.00601373  1
  I  I43  1  0.68314444  0.50710637  0.26339546  1
  I  I44  1  0.23852933  0.49004487  0.18546876  1
  I  I45  1  0.00227598  0.77330458  0.49395262  1
  I  I46  1  0.31690629  0.51169298  0.73928439  1
  I  I47  1  0.76212017  0.49120882  0.81885535  1
