# generated using pymatgen
data_AlInH12C2(I3N)2
_symmetry_space_group_name_H-M   'P 1'
_cell_length_a   8.47279226
_cell_length_b   12.12696410
_cell_length_c   8.29982281
_cell_angle_alpha   86.76021056
_cell_angle_beta   90.00118632
_cell_angle_gamma   90.03388776
_symmetry_Int_Tables_number   1
_chemical_formula_structural   AlInH12C2(I3N)2
_chemical_formula_sum   'Al2 In2 H24 C4 I12 N4'
_cell_volume   851.43741725
_cell_formula_units_Z   2
loop_
 _symmetry_equiv_pos_site_id
 _symmetry_equiv_pos_as_xyz
  1  'x, y, z'
loop_
 _atom_site_type_symbol
 _atom_site_label
 _atom_site_symmetry_multiplicity
 _atom_site_fract_x
 _atom_site_fract_y
 _atom_site_fract_z
 _atom_site_occupancy
  C  C0  1  0.39916440  0.24945660  0.41535941  1
  C  C1  1  0.90018070  0.25064498  0.08559487  1
  C  C2  1  0.60083101  0.75054585  0.58465619  1
  C  C3  1  0.09982590  0.74935646  0.91441649  1
  N  N4  1  0.54032702  0.24788589  0.52120124  1
  N  N5  1  0.04072811  0.25211302  0.97891131  1
  N  N6  1  0.45967036  0.75212055  0.47881190  1
  N  N7  1  0.95927822  0.74788551  0.02109984  1
  H  H8  1  0.43822707  0.25177972  0.28937990  1
  H  H9  1  0.33043465  0.17440439  0.44308524  1
  H  H10  1  0.32919944  0.32269782  0.43767901  1
  H  H11  1  0.60953454  0.17970024  0.49976102  1
  H  H12  1  0.60855015  0.31843342  0.49686351  1
  H  H13  1  0.51059089  0.24408265  0.64366268  1
  H  H14  1  0.93993296  0.24834786  0.21130090  1
  H  H15  1  0.82988142  0.17738339  0.06373236  1
  H  H16  1  0.83148413  0.32569902  0.05822445  1
  H  H17  1  0.10891740  0.18157689  0.00297147  1
  H  H18  1  0.11025922  0.32032756  0.99996215  1
  H  H19  1  0.01040740  0.25591144  0.85665959  1
  H  H20  1  0.56177078  0.74822485  0.71063410  1
  H  H21  1  0.67079487  0.67730541  0.56233486  1
  H  H22  1  0.66956397  0.82559933  0.55692805  1
  H  H23  1  0.39046176  0.82030574  0.50025569  1
  H  H24  1  0.39144405  0.68157144  0.50315186  1
  H  H25  1  0.48940367  0.75592311  0.35635414  1
  H  H26  1  0.06007357  0.75165576  0.78871007  1
  H  H27  1  0.17012413  0.82261834  0.93628199  1
  H  H28  1  0.16852347  0.67430284  0.94178371  1
  H  H29  1  0.89108688  0.81842034  0.99704187  1
  H  H30  1  0.88974991  0.67966984  0.00004820  1
  H  H31  1  0.98959937  0.74408648  0.14335196  1
  Al  Al32  1  0.50000289  0.00000343  0.00000858  1
  Al  Al33  1  0.99999652  0.50000199  0.49999998  1
  In  In34  1  0.00000115  0.00000284  0.50000799  1
  In  In35  1  0.49999967  0.50000580  0.99999624  1
  I  I36  1  0.47769278  0.22956483  0.94576627  1
  I  I37  1  0.21068535  0.00229185  0.16081240  1
  I  I38  1  0.65769465  0.01729257  0.29479815  1
  I  I39  1  0.97709067  0.27047424  0.55464061  1
  I  I40  1  0.34230895  0.98271413  0.70522045  1
  I  I41  1  0.78932056  0.99771149  0.83920545  1
  I  I42  1  0.52231379  0.77044219  0.05425143  1
  I  I43  1  0.71084875  0.49758486  0.33884597  1
  I  I44  1  0.15801141  0.48276232  0.20537526  1
  I  I45  1  0.02290377  0.72952975  0.44536919  1
  I  I46  1  0.28914541  0.50241834  0.66115803  1
  I  I47  1  0.84198600  0.51724091  0.79463056  1
