# generated using pymatgen
data_HfHgH10C2(I3N2)2
_symmetry_space_group_name_H-M   'P 1'
_cell_length_a   8.70318472
_cell_length_b   12.35614608
_cell_length_c   8.69408600
_cell_angle_alpha   89.84686510
_cell_angle_beta   90.00008406
_cell_angle_gamma   90.00150096
_symmetry_Int_Tables_number   1
_chemical_formula_structural   HfHgH10C2(I3N2)2
_chemical_formula_sum   'Hf2 Hg2 H20 C4 I12 N8'
_cell_volume   934.93973045
_cell_formula_units_Z   2
loop_
 _symmetry_equiv_pos_site_id
 _symmetry_equiv_pos_as_xyz
  1  'x, y, z'
loop_
 _atom_site_type_symbol
 _atom_site_label
 _atom_site_symmetry_multiplicity
 _atom_site_fract_x
 _atom_site_fract_y
 _atom_site_fract_z
 _atom_site_occupancy
  C  C0  1  0.49340587  0.28819974  0.49584950  1
  C  C1  1  0.99347902  0.21178809  0.00416887  1
  C  C2  1  0.50718666  0.78827269  0.50349342  1
  C  C3  1  0.00711179  0.71173278  0.99648186  1
  N  N4  1  0.59128765  0.23984815  0.58825169  1
  N  N5  1  0.39880840  0.23973010  0.40064846  1
  N  N6  1  0.09138365  0.26014572  0.91180952  1
  N  N7  1  0.89884390  0.26025650  0.09936311  1
  N  N8  1  0.59975765  0.73967191  0.60090449  1
  N  N9  1  0.41086356  0.74005234  0.40970652  1
  N  N10  1  0.09970547  0.76034156  0.89910217  1
  N  N11  1  0.91074780  0.75994213  0.09023570  1
  H  H12  1  0.49005274  0.37644218  0.49878606  1
  H  H13  1  0.65989647  0.28565734  0.65745817  1
  H  H14  1  0.60097066  0.15771420  0.59680322  1
  H  H15  1  0.32693899  0.28589226  0.33471465  1
  H  H16  1  0.39448587  0.15772970  0.38687698  1
  H  H17  1  0.99011686  0.12354762  0.00122059  1
  H  H18  1  0.16002500  0.21434179  0.84262707  1
  H  H19  1  0.10110482  0.34227954  0.90328806  1
  H  H20  1  0.82696365  0.21408787  0.16526260  1
  H  H21  1  0.89454299  0.34225469  0.11313808  1
  H  H22  1  0.51091384  0.87650617  0.49990180  1
  H  H23  1  0.66940947  0.78570781  0.66897519  1
  H  H24  1  0.60813375  0.65752957  0.61102818  1
  H  H25  1  0.34435903  0.78598192  0.33824891  1
  H  H26  1  0.39632331  0.65809173  0.40646956  1
  H  H27  1  0.01084838  0.62349940  1.00007603  1
  H  H28  1  0.16938634  0.71431297  0.83104951  1
  H  H29  1  0.10807490  0.84248656  0.88897707  1
  H  H30  1  0.84421343  0.71400608  0.16165580  1
  H  H31  1  0.89617630  0.84190002  0.09344911  1
  Hf  Hf32  1  0.49862327  0.99991559  0.99905765  1
  Hf  Hf33  1  0.99862295  0.50010132  0.50096125  1
  Hg  Hg34  1  0.99884867  0.00013528  0.49912776  1
  Hg  Hg35  1  0.49884297  0.49988705  0.00089480  1
  I  I36  1  0.49866609  0.22680284  0.99318964  1
  I  I37  1  0.22317719  0.98838727  0.17592108  1
  I  I38  1  0.67611578  0.01635804  0.27541702  1
  I  I39  1  0.99864420  0.27321546  0.50685507  1
  I  I40  1  0.32312018  0.00912707  0.72228677  1
  I  I41  1  0.77593881  0.98597517  0.82259235  1
  I  I42  1  0.50277638  0.77307884  0.00627656  1
  I  I43  1  0.72316055  0.51159886  0.32411006  1
  I  I44  1  0.17609644  0.48364650  0.22458320  1
  I  I45  1  0.00280750  0.72693488  0.49366638  1
  I  I46  1  0.27594204  0.51406163  0.67741442  1
  I  I47  1  0.82311812  0.49088606  0.77772879  1
