# generated using pymatgen
data_HfH10PtC2(I3N2)2
_symmetry_space_group_name_H-M   'P 1'
_cell_length_a   8.78671309
_cell_length_b   10.42937036
_cell_length_c   8.85245982
_cell_angle_alpha   90.16733485
_cell_angle_beta   90.00665724
_cell_angle_gamma   89.99478445
_symmetry_Int_Tables_number   1
_chemical_formula_structural   HfH10PtC2(I3N2)2
_chemical_formula_sum   'Hf2 H20 Pt2 C4 I12 N8'
_cell_volume   811.23493242
_cell_formula_units_Z   2
loop_
 _symmetry_equiv_pos_site_id
 _symmetry_equiv_pos_as_xyz
  1  'x, y, z'
loop_
 _atom_site_type_symbol
 _atom_site_label
 _atom_site_symmetry_multiplicity
 _atom_site_fract_x
 _atom_site_fract_y
 _atom_site_fract_z
 _atom_site_occupancy
  C  C0  1  0.50354086  0.28945287  0.50303642  1
  C  C1  1  0.00347916  0.21049856  0.99691643  1
  C  C2  1  0.51197663  0.79154072  0.49956383  1
  C  C3  1  0.01196318  0.70852375  0.00042229  1
  N  N4  1  0.60558523  0.23417986  0.58855646  1
  N  N5  1  0.41405993  0.23143071  0.40590872  1
  N  N6  1  0.10546113  0.26576102  0.91140869  1
  N  N7  1  0.91404435  0.26853413  0.09410959  1
  N  N8  1  0.58985715  0.72975154  0.60241170  1
  N  N9  1  0.41637350  0.74013994  0.40331935  1
  N  N10  1  0.08972958  0.77033398  0.89751982  1
  N  N11  1  0.91629156  0.75985803  0.09661963  1
  H  H12  1  0.48844811  0.39258998  0.51531970  1
  H  H13  1  0.67134661  0.29086076  0.65691364  1
  H  H14  1  0.64462430  0.14094922  0.57266116  1
  H  H15  1  0.33855409  0.28519019  0.34457856  1
  H  H16  1  0.41713592  0.13526369  0.38512825  1
  H  H17  1  0.98832056  0.10737052  0.98461726  1
  H  H18  1  0.17120386  0.20906401  0.84303740  1
  H  H19  1  0.14463675  0.35897042  0.92740375  1
  H  H20  1  0.83854888  0.21477331  0.15542221  1
  H  H21  1  0.91714534  0.36467135  0.11489965  1
  H  H22  1  0.53140586  0.89453232  0.49299399  1
  H  H23  1  0.66433650  0.78057147  0.66829189  1
  H  H24  1  0.58272597  0.63341540  0.61972565  1
  H  H25  1  0.35933127  0.79791831  0.32904769  1
  H  H26  1  0.39136116  0.64442034  0.39929096  1
  H  H27  1  0.03160975  0.60554268  0.00708212  1
  H  H28  1  0.16432738  0.71955066  0.83176138  1
  H  H29  1  0.08238860  0.86663176  0.88008800  1
  H  H30  1  0.85932531  0.70205582  0.17089916  1
  H  H31  1  0.89110800  0.85554977  0.10057246  1
  Hf  Hf32  1  0.48587498  0.99978231  0.99248625  1
  Hf  Hf33  1  0.98591277  0.50026657  0.50762660  1
  Pt  Pt34  1  0.85369854  0.00236762  0.52921445  1
  Pt  Pt35  1  0.35295104  0.49770055  0.97105476  1
  I  I36  1  0.50973268  0.27129023  0.00082310  1
  I  I37  1  0.23377384  0.99138951  0.19070546  1
  I  I38  1  0.70289043  0.01321396  0.25181461  1
  I  I39  1  0.00983834  0.22874687  0.49913428  1
  I  I40  1  0.31049661  0.00927825  0.72788435  1
  I  I41  1  0.76659843  0.98332937  0.81567428  1
  I  I42  1  0.50692516  0.72861162  0.00410653  1
  I  I43  1  0.73382563  0.50862793  0.30931550  1
  I  I44  1  0.20298864  0.48675329  0.24835182  1
  I  I45  1  0.00700789  0.77141556  0.49586088  1
  I  I46  1  0.26671788  0.51665749  0.68438400  1
  I  I47  1  0.81053997  0.49073476  0.77214007  1
