# generated using pymatgen
data_TlH10IrC2(I3N2)2
_symmetry_space_group_name_H-M   'P 1'
_cell_length_a   8.50422694
_cell_length_b   11.78784337
_cell_length_c   8.49229044
_cell_angle_alpha   89.86303292
_cell_angle_beta   89.99987655
_cell_angle_gamma   90.00191463
_symmetry_Int_Tables_number   1
_chemical_formula_structural   TlH10IrC2(I3N2)2
_chemical_formula_sum   'Tl2 H20 Ir2 C4 I12 N8'
_cell_volume   851.31991971
_cell_formula_units_Z   2
loop_
 _symmetry_equiv_pos_site_id
 _symmetry_equiv_pos_as_xyz
  1  'x, y, z'
loop_
 _atom_site_type_symbol
 _atom_site_label
 _atom_site_symmetry_multiplicity
 _atom_site_fract_x
 _atom_site_fract_y
 _atom_site_fract_z
 _atom_site_occupancy
  C  C0  1  0.49400929  0.28923087  0.49583395  1
  C  C1  1  0.99407964  0.21075536  0.00418431  1
  C  C2  1  0.50621253  0.78925340  0.50343529  1
  C  C3  1  0.00614079  0.71075022  0.99655341  1
  N  N4  1  0.59331569  0.23860943  0.59088458  1
  N  N5  1  0.39779252  0.23818482  0.39846764  1
  N  N6  1  0.09341464  0.26140521  0.90915822  1
  N  N7  1  0.89783653  0.26180535  0.10154745  1
  N  N8  1  0.60127907  0.73825463  0.60218667  1
  N  N9  1  0.40771332  0.73867640  0.40787981  1
  N  N10  1  0.10122206  0.76176268  0.89781613  1
  N  N11  1  0.90761236  0.76131018  0.09207613  1
  H  H12  1  0.49090707  0.38167977  0.49815417  1
  H  H13  1  0.66463031  0.28661270  0.66085431  1
  H  H14  1  0.60205273  0.15251748  0.60159314  1
  H  H15  1  0.32351502  0.28636199  0.33131633  1
  H  H16  1  0.39359032  0.15225374  0.38362895  1
  H  H17  1  0.99096627  0.11832051  0.00185797  1
  H  H18  1  0.16473949  0.21338544  0.83920818  1
  H  H19  1  0.10216710  0.34747059  0.89847222  1
  H  H20  1  0.82355336  0.21363295  0.16866317  1
  H  H21  1  0.89364841  0.34774096  0.11638133  1
  H  H22  1  0.50960517  0.88172385  0.50027614  1
  H  H23  1  0.67170930  0.78640081  0.67309913  1
  H  H24  1  0.61172330  0.65211109  0.61143145  1
  H  H25  1  0.34022651  0.78669223  0.33382399  1
  H  H26  1  0.39218327  0.65277766  0.40458897  1
  H  H27  1  0.00954855  0.61827881  0.99972496  1
  H  H28  1  0.17168022  0.71360943  0.82691968  1
  H  H29  1  0.11165754  0.84788944  0.88856696  1
  H  H30  1  0.84011448  0.71330221  0.16611711  1
  H  H31  1  0.89205945  0.84722366  0.09535117  1
  Ir  Ir32  1  0.49977663  0.99999359  0.99853539  1
  Ir  Ir33  1  0.99977390  0.50001800  0.50147260  1
  Tl  Tl34  1  0.00090016  0.00006843  0.49799078  1
  Tl  Tl35  1  0.50089997  0.49994664  0.00201739  1
  I  I36  1  0.49760179  0.22924631  0.99479193  1
  I  I37  1  0.24268642  0.99044817  0.18692100  1
  I  I38  1  0.68857406  0.01041794  0.25554702  1
  I  I39  1  0.99755390  0.27076567  0.50526109  1
  I  I40  1  0.31121330  0.00774546  0.74132151  1
  I  I41  1  0.75630823  0.99142366  0.80908261  1
  I  I42  1  0.50250837  0.77074938  0.00368371  1
  I  I43  1  0.74267631  0.50953768  0.31309538  1
  I  I44  1  0.18856649  0.48958523  0.24445631  1
  I  I45  1  0.00255892  0.72926301  0.49626409  1
  I  I46  1  0.25630419  0.50860571  0.69092339  1
  I  I47  1  0.81121038  0.49226424  0.75868765  1
