# generated using pymatgen
data_HgH10PtC2(I3N2)2
_symmetry_space_group_name_H-M   'P 1'
_cell_length_a   8.56903747
_cell_length_b   11.78576679
_cell_length_c   8.55614011
_cell_angle_alpha   89.93002321
_cell_angle_beta   90.00289372
_cell_angle_gamma   90.00385867
_symmetry_Int_Tables_number   1
_chemical_formula_structural   HgH10PtC2(I3N2)2
_chemical_formula_sum   'Hg2 H20 Pt2 C4 I12 N8'
_cell_volume   864.10684959
_cell_formula_units_Z   2
loop_
 _symmetry_equiv_pos_site_id
 _symmetry_equiv_pos_as_xyz
  1  'x, y, z'
loop_
 _atom_site_type_symbol
 _atom_site_label
 _atom_site_symmetry_multiplicity
 _atom_site_fract_x
 _atom_site_fract_y
 _atom_site_fract_z
 _atom_site_occupancy
  C  C0  1  0.49589120  0.28978976  0.49612597  1
  C  C1  1  0.99594013  0.21021472  0.00388513  1
  C  C2  1  0.50411142  0.78973953  0.50326269  1
  C  C3  1  0.00405989  0.71027521  0.99673388  1
  N  N4  1  0.59514282  0.23963873  0.59023585  1
  N  N5  1  0.39908411  0.23841736  0.40094542  1
  N  N6  1  0.09518766  0.26036349  0.90980795  1
  N  N7  1  0.89911771  0.26157925  0.09907780  1
  N  N8  1  0.59810388  0.73865635  0.60168571  1
  N  N9  1  0.40773636  0.73927303  0.40665092  1
  N  N10  1  0.09804128  0.76135096  0.89831732  1
  N  N11  1  0.90765952  0.76071496  0.09333289  1
  H  H12  1  0.49346331  0.38238896  0.49717182  1
  H  H13  1  0.66610738  0.28874008  0.65846919  1
  H  H14  1  0.60449653  0.15357137  0.60171091  1
  H  H15  1  0.32581662  0.28687247  0.33412240  1
  H  H16  1  0.39349406  0.15232754  0.38739834  1
  H  H17  1  0.99348991  0.11761130  0.00283578  1
  H  H18  1  0.16615956  0.21126700  0.84157091  1
  H  H19  1  0.10457230  0.34643797  0.89833636  1
  H  H20  1  0.82584588  0.21312192  0.16588241  1
  H  H21  1  0.89354853  0.34767031  0.11262775  1
  H  H22  1  0.50641815  0.88232464  0.50152989  1
  H  H23  1  0.66693462  0.78737514  0.67259899  1
  H  H24  1  0.60894789  0.65251245  0.61064553  1
  H  H25  1  0.34092257  0.78813109  0.33388326  1
  H  H26  1  0.39339477  0.65328383  0.40088724  1
  H  H27  1  0.00638967  0.61767571  0.99848299  1
  H  H28  1  0.16689188  0.71264577  0.82741618  1
  H  H29  1  0.10887335  0.84750434  0.88933947  1
  H  H30  1  0.84085372  0.71185640  0.16609938  1
  H  H31  1  0.89329583  0.84671236  0.09907675  1
  Pt  Pt32  1  0.49982444  0.00001274  0.99830814  1
  Pt  Pt33  1  0.99981650  0.49998946  0.50169087  1
  Hg  Hg34  1  0.00082632  0.00002241  0.49798372  1
  Hg  Hg35  1  0.50082677  0.49998245  0.00200228  1
  I  I36  1  0.49900223  0.27286897  0.99778071  1
  I  I37  1  0.25398349  0.98783065  0.18664235  1
  I  I38  1  0.68820707  0.01002099  0.24453849  1
  I  I39  1  0.99894801  0.22713397  0.50224098  1
  I  I40  1  0.31162454  0.01200106  0.75238706  1
  I  I41  1  0.74553935  0.99030442  0.80966102  1
  I  I42  1  0.50103882  0.72712560  0.00261902  1
  I  I43  1  0.75396789  0.51215329  0.31335729  1
  I  I44  1  0.18819286  0.48998624  0.25546171  1
  I  I45  1  0.00106485  0.77288052  0.49733999  1
  I  I46  1  0.24554147  0.50971451  0.69033646  1
  I  I47  1  0.81162224  0.48799171  0.74760758  1
