# generated using pymatgen
data_TlBiH10C2(I3N2)2
_symmetry_space_group_name_H-M   'P 1'
_cell_length_a   8.77273206
_cell_length_b   12.50840524
_cell_length_c   8.76643772
_cell_angle_alpha   90.00934373
_cell_angle_beta   89.99997683
_cell_angle_gamma   89.99645463
_symmetry_Int_Tables_number   1
_chemical_formula_structural   TlBiH10C2(I3N2)2
_chemical_formula_sum   'Tl2 Bi2 H20 C4 I12 N8'
_cell_volume   961.96651135
_cell_formula_units_Z   2
loop_
 _symmetry_equiv_pos_site_id
 _symmetry_equiv_pos_as_xyz
  1  'x, y, z'
loop_
 _atom_site_type_symbol
 _atom_site_label
 _atom_site_symmetry_multiplicity
 _atom_site_fract_x
 _atom_site_fract_y
 _atom_site_fract_z
 _atom_site_occupancy
  C  C0  1  0.49270564  0.28857102  0.49656322  1
  C  C1  1  0.99278513  0.21141292  0.00346268  1
  C  C2  1  0.50719416  0.78857753  0.50355715  1
  C  C3  1  0.00710743  0.71143346  0.99639947  1
  N  N4  1  0.58851619  0.24060902  0.58906242  1
  N  N5  1  0.40026179  0.24043516  0.40077603  1
  N  N6  1  0.08863795  0.25937510  0.91100826  1
  N  N7  1  0.90030961  0.25954658  0.09922206  1
  N  N8  1  0.60038285  0.74045889  0.59859379  1
  N  N9  1  0.41074119  0.74060232  0.41170227  1
  N  N10  1  0.10032545  0.75955122  0.90141154  1
  N  N11  1  0.91060752  0.75940836  0.08823558  1
  H  H12  1  0.48935785  0.37577675  0.49974607  1
  H  H13  1  0.65614578  0.28520854  0.65915711  1
  H  H14  1  0.60076849  0.15948790  0.59259944  1
  H  H15  1  0.32977750  0.28536015  0.33377029  1
  H  H16  1  0.39385381  0.15926521  0.39070753  1
  H  H17  1  0.98943738  0.12420850  0.00025578  1
  H  H18  1  0.15630075  0.21477396  0.84094826  1
  H  H19  1  0.10091642  0.34049187  0.90751790  1
  H  H20  1  0.82979385  0.21462023  0.16619267  1
  H  H21  1  0.89389609  0.34071791  0.10930801  1
  H  H22  1  0.51050465  0.87578287  0.50035913  1
  H  H23  1  0.67104244  0.78540814  0.66540718  1
  H  H24  1  0.60482535  0.65933357  0.61061528  1
  H  H25  1  0.34306478  0.78517619  0.34164386  1
  H  H26  1  0.40074196  0.65942033  0.40587941  1
  H  H27  1  0.01041650  0.62421741  0.99958307  1
  H  H28  1  0.17101253  0.71461043  0.83461536  1
  H  H29  1  0.10476201  0.84067965  0.88941494  1
  H  H30  1  0.84289639  0.71482442  0.15823610  1
  H  H31  1  0.90058404  0.84057458  0.09404143  1
  Tl  Tl32  1  0.50061663  0.99985903  0.99880966  1
  Tl  Tl33  1  0.00062269  0.50017878  0.50122579  1
  Bi  Bi34  1  0.00038952  0.00014368  0.49896403  1
  Bi  Bi35  1  0.50037963  0.49988502  0.00105248  1
  I  I36  1  0.49755865  0.25700775  0.99272987  1
  I  I37  1  0.18784252  0.98545567  0.20453899  1
  I  I38  1  0.70354780  0.02186563  0.31293280  1
  I  I39  1  0.99753696  0.24301954  0.50733897  1
  I  I40  1  0.29414294  0.01530221  0.68678796  1
  I  I41  1  0.81403385  0.97752287  0.79520657  1
  I  I42  1  0.50206458  0.74284266  0.00722268  1
  I  I43  1  0.68781781  0.51450909  0.29548956  1
  I  I44  1  0.20352078  0.47817270  0.18706509  1
  I  I45  1  0.00208505  0.75718646  0.49272004  1
  I  I46  1  0.31405779  0.52252091  0.70478997  1
  I  I47  1  0.79412865  0.48467075  0.81323703  1
