# generated using pymatgen
data_BeH5CBr3N2
_symmetry_space_group_name_H-M   'P 1'
_cell_length_a   6.69336514
_cell_length_b   13.38271752
_cell_length_c   8.17476906
_cell_angle_alpha   90.00016229
_cell_angle_beta   90.03083352
_cell_angle_gamma   89.85866762
_symmetry_Int_Tables_number   1
_chemical_formula_structural   BeH5CBr3N2
_chemical_formula_sum   'Be4 H20 C4 Br12 N8'
_cell_volume   732.25599669
_cell_formula_units_Z   4
loop_
 _symmetry_equiv_pos_site_id
 _symmetry_equiv_pos_as_xyz
  1  'x, y, z'
loop_
 _atom_site_type_symbol
 _atom_site_label
 _atom_site_symmetry_multiplicity
 _atom_site_fract_x
 _atom_site_fract_y
 _atom_site_fract_z
 _atom_site_occupancy
  C  C0  1  0.45670748  0.32571973  0.48136676  1
  C  C1  1  0.95352155  0.17435801  0.01900935  1
  C  C2  1  0.54611686  0.82563756  0.51864402  1
  C  C3  1  0.04368604  0.67427400  0.98116349  1
  N  N4  1  0.46045123  0.31606706  0.64081537  1
  N  N5  1  0.44917294  0.25150701  0.37681645  1
  N  N6  1  0.95904084  0.18332105  0.85959189  1
  N  N7  1  0.95191533  0.24900392  0.12305339  1
  N  N8  1  0.54823403  0.75114776  0.62290017  1
  N  N9  1  0.54072272  0.81644226  0.35919487  1
  N  N10  1  0.05074865  0.74858444  0.87667074  1
  N  N11  1  0.03975668  0.68381715  0.14054648  1
  H  H12  1  0.46065327  0.40147965  0.43187858  1
  H  H13  1  0.47192916  0.37850393  0.71154395  1
  H  H14  1  0.45925848  0.24895020  0.70073751  1
  H  H15  1  0.44035076  0.26573945  0.25429495  1
  H  H16  1  0.43680241  0.17887250  0.41422020  1
  H  H17  1  0.95111271  0.09877505  0.06925109  1
  H  H18  1  0.96397781  0.12032219  0.78966929  1
  H  H19  1  0.96283113  0.25014457  0.79878372  1
  H  H20  1  0.94182437  0.23536928  0.24565939  1
  H  H21  1  0.94619742  0.32173840  0.08521141  1
  H  H22  1  0.54799367  0.90130258  0.56856646  1
  H  H23  1  0.55820691  0.76496306  0.74548315  1
  H  H24  1  0.55439769  0.67836226  0.58534443  1
  H  H25  1  0.53523676  0.87931569  0.28902694  1
  H  H26  1  0.53740726  0.74952354  0.29868420  1
  H  H27  1  0.04029536  0.59855012  0.93148959  1
  H  H28  1  0.05978599  0.73442486  0.75416818  1
  H  H29  1  0.06269410  0.82120062  0.91422477  1
  H  H30  1  0.02875924  0.62129731  0.21116230  1
  H  H31  1  0.04045439  0.75089322  0.20064917  1
  Be  Be32  1  0.47136399  0.02608295  0.97322953  1
  Be  Be33  1  0.97323845  0.47381907  0.52659003  1
  Be  Be34  1  0.02821789  0.97397486  0.47312989  1
  Be  Be35  1  0.52710051  0.52623412  0.02641270  1
  Br  Br36  1  0.46177938  0.18119821  0.98105888  1
  Br  Br37  1  0.24354647  0.94881886  0.09327818  1
  Br  Br38  1  0.78521424  0.05007335  0.37500371  1
  Br  Br39  1  0.96300035  0.31871307  0.51945885  1
  Br  Br40  1  0.25605342  0.05129264  0.59326009  1
  Br  Br41  1  0.71414786  0.94993235  0.87501975  1
  Br  Br42  1  0.53717368  0.68132666  0.01912166  1
  Br  Br43  1  0.74563908  0.55150046  0.40578185  1
  Br  Br44  1  0.28556874  0.45051777  0.12617731  1
  Br  Br45  1  0.03804747  0.81885423  0.48083128  1
  Br  Br46  1  0.21499336  0.54952253  0.62620164  1
  Br  Br47  1  0.75469123  0.44859345  0.90572712  1
