# generated using pymatgen
data_BH5CBr3N2
_symmetry_space_group_name_H-M   'P 1'
_cell_length_a   6.95916602
_cell_length_b   11.10836256
_cell_length_c   9.83948677
_cell_angle_alpha   81.29491138
_cell_angle_beta   90.74056881
_cell_angle_gamma   79.56017187
_symmetry_Int_Tables_number   1
_chemical_formula_structural   BH5CBr3N2
_chemical_formula_sum   'B4 H20 C4 Br12 N8'
_cell_volume   738.79465959
_cell_formula_units_Z   4
loop_
 _symmetry_equiv_pos_site_id
 _symmetry_equiv_pos_as_xyz
  1  'x, y, z'
loop_
 _atom_site_type_symbol
 _atom_site_label
 _atom_site_symmetry_multiplicity
 _atom_site_fract_x
 _atom_site_fract_y
 _atom_site_fract_z
 _atom_site_occupancy
  C  C0  1  0.42976873  0.24366036  0.40826887  1
  C  C1  1  0.94100319  0.20974860  0.12016928  1
  C  C2  1  0.40405489  0.88750645  0.47540196  1
  C  C3  1  0.03799387  0.70621016  0.98202689  1
  N  N4  1  0.51272730  0.20290043  0.53428039  1
  N  N5  1  0.45087246  0.19172830  0.29734633  1
  N  N6  1  0.13071099  0.19866916  0.10862897  1
  N  N7  1  0.83760050  0.25501266  0.21833954  1
  N  N8  1  0.56554427  0.80447083  0.49263316  1
  N  N9  1  0.22893631  0.86645429  0.44647110  1
  N  N10  1  0.05057631  0.75736786  0.85399405  1
  N  N11  1  0.12433260  0.73422621  0.08870694  1
  H  H12  1  0.32970564  0.33278725  0.39937578  1
  H  H13  1  0.48420967  0.25595268  0.60969577  1
  H  H14  1  0.62446600  0.12785084  0.55435827  1
  H  H15  1  0.62094299  0.54740844  0.08979448  1
  H  H16  1  0.54339679  0.10656170  0.31302323  1
  H  H17  1  0.85875552  0.18047163  0.03966399  1
  H  H18  1  0.18581445  0.15860301  0.02671245  1
  H  H19  1  0.23514180  0.20829400  0.18342039  1
  H  H20  1  0.69140978  0.24956964  0.22416124  1
  H  H21  1  0.90297986  0.28055035  0.30009693  1
  H  H22  1  0.41426339  0.98277444  0.48543788  1
  H  H23  1  0.69330931  0.83185853  0.51645699  1
  H  H24  1  0.57060691  0.71359630  0.48062856  1
  H  H25  1  0.09427357  0.06964146  0.39709636  1
  H  H26  1  0.21371512  0.77653765  0.44523093  1
  H  H27  1  0.94964678  0.63403563  0.00072441  1
  H  H28  1  0.96646377  0.73568380  0.77925794  1
  H  H29  1  0.11771830  0.83197454  0.82844972  1
  H  H30  1  0.10052431  0.68908168  0.18360555  1
  H  H31  1  0.20802986  0.80223104  0.08400601  1
  B  B32  1  0.47130737  0.95451523  0.92205986  1
  B  B33  1  0.90914538  0.48045774  0.46525316  1
  B  B34  1  0.05184784  0.96863040  0.41709147  1
  B  B35  1  0.59839103  0.49322776  0.99693747  1
  Br  Br36  1  0.67089997  0.06425688  0.88540798  1
  Br  Br37  1  0.44099426  0.91278190  0.12756533  1
  Br  Br38  1  0.88814882  0.93630575  0.26067584  1
  Br  Br39  1  0.98930417  0.30850936  0.57083927  1
  Br  Br40  1  0.21159855  0.04592660  0.82880825  1
  Br  Br41  1  0.88298055  0.96328414  0.59010877  1
  Br  Br42  1  0.54446782  0.79273053  0.84474741  1
  Br  Br43  1  0.61222647  0.51624833  0.43357905  1
  Br  Br44  1  0.03554140  0.49086595  0.27853748  1
  Br  Br45  1  0.00936839  0.60632284  0.56543334  1
  Br  Br46  1  0.36336998  0.43214876  0.97460232  1
  Br  Br47  1  0.80093208  0.46043088  0.87099338  1
