# generated using pymatgen
data_H5C2Br3N2
_symmetry_space_group_name_H-M   'P 1'
_cell_length_a   7.64736542
_cell_length_b   10.66746597
_cell_length_c   8.31424424
_cell_angle_alpha   96.23051549
_cell_angle_beta   89.99280723
_cell_angle_gamma   90.02519787
_symmetry_Int_Tables_number   1
_chemical_formula_structural   H5C2Br3N2
_chemical_formula_sum   'H20 C8 Br12 N8'
_cell_volume   674.25316245
_cell_formula_units_Z   4
loop_
 _symmetry_equiv_pos_site_id
 _symmetry_equiv_pos_as_xyz
  1  'x, y, z'
loop_
 _atom_site_type_symbol
 _atom_site_label
 _atom_site_symmetry_multiplicity
 _atom_site_fract_x
 _atom_site_fract_y
 _atom_site_fract_z
 _atom_site_occupancy
  C  C0  1  0.52839065  0.28776189  0.52005050  1
  C  C1  1  0.02809060  0.21226616  0.98006246  1
  C  C2  1  0.52857264  0.78686317  0.51879421  1
  C  C3  1  0.02867126  0.71333186  0.98120203  1
  N  N4  1  0.58593047  0.21615926  0.62761332  1
  N  N5  1  0.41421779  0.25330830  0.40694879  1
  N  N6  1  0.08609357  0.28373307  0.87249943  1
  N  N7  1  0.91377452  0.24688540  0.09297063  1
  N  N8  1  0.58568290  0.71511268  0.62637101  1
  N  N9  1  0.41427459  0.75264927  0.40569732  1
  N  N10  1  0.08615158  0.78519797  0.87388239  1
  N  N11  1  0.91403257  0.74742255  0.09406504  1
  H  H12  1  0.58216251  0.38270173  0.52471542  1
  H  H13  1  0.66732789  0.25502875  0.71646297  1
  H  H14  1  0.53473995  0.12920665  0.63872760  1
  H  H15  1  0.37391359  0.31701058  0.33101605  1
  H  H16  1  0.35766328  0.16568326  0.39141044  1
  H  H17  1  0.08156424  0.11728592  0.97559764  1
  H  H18  1  0.16751748  0.24471107  0.78377861  1
  H  H19  1  0.03529242  0.37074102  0.86123291  1
  H  H20  1  0.87318466  0.18328529  0.16896504  1
  H  H21  1  0.85749444  0.33456773  0.10836823  1
  H  H22  1  0.58282806  0.88165238  0.52335795  1
  H  H23  1  0.66708787  0.75376039  0.71534070  1
  H  H24  1  0.53369183  0.62843584  0.63768611  1
  H  H25  1  0.37443720  0.81639023  0.32964627  1
  H  H26  1  0.35742598  0.66511480  0.39008188  1
  H  H27  1  0.08287147  0.61856445  0.97667631  1
  H  H28  1  0.16781573  0.74668418  0.78507002  1
  H  H29  1  0.03427508  0.87186806  0.86254193  1
  H  H30  1  0.87397500  0.68362179  0.16998756  1
  H  H31  1  0.85725435  0.83493662  0.10965658  1
  C  C32  1  0.54418090  0.01347818  0.02758212  1
  C  C33  1  0.04413578  0.48614978  0.47237999  1
  C  C34  1  0.04516606  0.98655436  0.47281673  1
  C  C35  1  0.54527718  0.51310297  0.02706339  1
  Br  Br36  1  0.48109042  0.19708477  0.01593429  1
  Br  Br37  1  0.19246622  0.98531820  0.25897483  1
  Br  Br38  1  0.69212769  0.01474166  0.24121182  1
  Br  Br39  1  0.98136372  0.30244723  0.48400013  1
  Br  Br40  1  0.23841104  0.01748643  0.65721494  1
  Br  Br41  1  0.73678774  0.98203543  0.84262157  1
  Br  Br42  1  0.48132842  0.69661052  0.01518007  1
  Br  Br43  1  0.69247469  0.51461576  0.24102241  1
  Br  Br44  1  0.19212335  0.48515135  0.25879327  1
  Br  Br45  1  0.98145537  0.80298873  0.48470624  1
  Br  Br46  1  0.23662526  0.51789096  0.65738226  1
  Br  Br47  1  0.73859933  0.48246434  0.84274337  1
