# generated using pymatgen
data_H5C(BrN)3
_symmetry_space_group_name_H-M   'P 1'
_cell_length_a   8.03450764
_cell_length_b   9.95830237
_cell_length_c   8.62045976
_cell_angle_alpha   100.14286966
_cell_angle_beta   90.01975043
_cell_angle_gamma   90.00835480
_symmetry_Int_Tables_number   1
_chemical_formula_structural   H5C(BrN)3
_chemical_formula_sum   'H20 C4 Br12 N12'
_cell_volume   678.94420677
_cell_formula_units_Z   4
loop_
 _symmetry_equiv_pos_site_id
 _symmetry_equiv_pos_as_xyz
  1  'x, y, z'
loop_
 _atom_site_type_symbol
 _atom_site_label
 _atom_site_symmetry_multiplicity
 _atom_site_fract_x
 _atom_site_fract_y
 _atom_site_fract_z
 _atom_site_occupancy
  C  C0  1  0.53267410  0.26842956  0.49140039  1
  C  C1  1  0.03229237  0.23188374  0.00801969  1
  C  C2  1  0.49281732  0.77444725  0.39856939  1
  C  C3  1  0.99365260  0.72519168  0.10222730  1
  N  N4  1  0.44184303  0.19155169  0.56752790  1
  N  N5  1  0.53723362  0.25511842  0.33791456  1
  N  N6  1  0.94080646  0.30850104  0.93209414  1
  N  N7  1  0.03742705  0.24521680  0.16149519  1
  N  N8  1  0.56568568  0.70899160  0.49910778  1
  N  N9  1  0.47842261  0.73087723  0.24606957  1
  N  N10  1  0.06591959  0.79051554  0.00126243  1
  N  N11  1  0.97850990  0.76954076  0.25449615  1
  H  H12  1  0.60878608  0.34827102  0.56076592  1
  H  H13  1  0.44032259  0.21018016  0.68813149  1
  H  H14  1  0.36143260  0.12103873  0.50761504  1
  H  H15  1  0.60997260  0.32084498  0.28718873  1
  H  H16  1  0.46690107  0.18156070  0.26888690  1
  H  H17  1  0.10848806  0.15226538  0.93846544  1
  H  H18  1  0.93891193  0.28985303  0.81149405  1
  H  H19  1  0.86030283  0.37878477  0.99215350  1
  H  H20  1  0.11050287  0.17961200  0.21209134  1
  H  H21  1  0.96704654  0.31858213  0.23068156  1
  H  H22  1  0.43636680  0.87321630  0.44449903  1
  H  H23  1  0.56338869  0.74983136  0.61652795  1
  H  H24  1  0.62531412  0.61779927  0.46077802  1
  H  H25  1  0.42165602  0.79556929  0.18234240  1
  H  H26  1  0.52553228  0.63950869  0.18922559  1
  H  H27  1  0.93841852  0.62578989  0.05690439  1
  H  H28  1  0.06428060  0.74894624  0.88403780  1
  H  H29  1  0.12460704  0.88222958  0.03904315  1
  H  H30  1  0.92213640  0.70497577  0.31859738  1
  H  H31  1  0.02463512  0.86143587  0.31096380  1
  N  N32  1  0.58749668  0.01383956  0.91948816  1
  N  N33  1  0.08712230  0.48596709  0.58039473  1
  N  N34  1  0.96297345  0.01752293  0.55180275  1
  N  N35  1  0.46293182  0.48233822  0.94805814  1
  Br  Br36  1  0.48207354  0.28598869  0.95768881  1
  Br  Br37  1  0.26845673  0.01019135  0.24449233  1
  Br  Br38  1  0.71638475  0.99185574  0.10227157  1
  Br  Br39  1  0.98178424  0.21383743  0.54198226  1
  Br  Br40  1  0.16179556  0.96771223  0.66108002  1
  Br  Br41  1  0.77205810  0.00614082  0.72613770  1
  Br  Br42  1  0.44112514  0.85467034  0.86357413  1
  Br  Br43  1  0.76853078  0.49003992  0.25546621  1
  Br  Br44  1  0.21609503  0.50801435  0.39777365  1
  Br  Br45  1  0.94127986  0.64536290  0.63655853  1
  Br  Br46  1  0.27193861  0.49349353  0.77374927  1
  Br  Br47  1  0.66168567  0.53252741  0.83900854  1
