# generated using pymatgen
data_MgH5CBr3N2
_symmetry_space_group_name_H-M   'P 1'
_cell_length_a   8.83870940
_cell_length_b   8.17045102
_cell_length_c   10.33092234
_cell_angle_alpha   90.00383352
_cell_angle_beta   90.00019335
_cell_angle_gamma   90.01231932
_symmetry_Int_Tables_number   1
_chemical_formula_structural   MgH5CBr3N2
_chemical_formula_sum   'Mg4 H20 C4 Br12 N8'
_cell_volume   746.06037205
_cell_formula_units_Z   4
loop_
 _symmetry_equiv_pos_site_id
 _symmetry_equiv_pos_as_xyz
  1  'x, y, z'
loop_
 _atom_site_type_symbol
 _atom_site_label
 _atom_site_symmetry_multiplicity
 _atom_site_fract_x
 _atom_site_fract_y
 _atom_site_fract_z
 _atom_site_occupancy
  C  C0  1  0.48680289  0.26695698  0.49923922  1
  C  C1  1  0.98690893  0.23313695  0.00068461  1
  C  C2  1  0.51308875  0.76686319  0.50071435  1
  C  C3  1  0.01323490  0.73304513  0.99922697  1
  N  N4  1  0.62998706  0.26511158  0.53245634  1
  N  N5  1  0.43468008  0.20839337  0.38952228  1
  N  N6  1  0.13014998  0.23488180  0.96764162  1
  N  N7  1  0.93469813  0.29151234  0.11042729  1
  N  N8  1  0.56526324  0.70844344  0.61045436  1
  N  N9  1  0.36986949  0.76509325  0.46761592  1
  N  N10  1  0.06530113  0.79166515  0.88950915  1
  N  N11  1  0.87007123  0.73488691  0.03248896  1
  H  H12  1  0.40584025  0.32130377  0.56684023  1
  H  H13  1  0.66583651  0.31649921  0.61788897  1
  H  H14  1  0.71140533  0.22010722  0.47184429  1
  H  H15  1  0.32191604  0.21332492  0.36930582  1
  H  H16  1  0.50462281  0.15396587  0.32311794  1
  H  H17  1  0.90598274  0.17905217  0.93292641  1
  H  H18  1  0.16605647  0.18366329  0.88216632  1
  H  H19  1  0.21154523  0.27966755  0.02840752  1
  H  H20  1  0.82189528  0.28666450  0.13050641  1
  H  H21  1  0.00459937  0.34574075  0.17699050  1
  H  H22  1  0.59404165  0.82100884  0.43300445  1
  H  H23  1  0.67805427  0.71331479  0.63057380  1
  H  H24  1  0.49533685  0.65417555  0.67696435  1
  H  H25  1  0.33399046  0.81635184  0.38215482  1
  H  H26  1  0.28845744  0.72025983  0.52833012  1
  H  H27  1  0.09421981  0.67867067  0.06676716  1
  H  H28  1  0.17805262  0.78673834  0.86924353  1
  H  H29  1  0.99531689  0.84612352  0.82314573  1
  H  H30  1  0.83424924  0.68346172  0.11791398  1
  H  H31  1  0.78861106  0.77992106  0.97192602  1
  Mg  Mg32  1  0.51575417  0.01982753  0.85924281  1
  Mg  Mg33  1  0.01559404  0.48020515  0.64076043  1
  Mg  Mg34  1  0.98423396  0.98015425  0.35922676  1
  Mg  Mg35  1  0.48438575  0.51983286  0.14077779  1
  Br  Br36  1  0.52057346  0.24438807  0.02740535  1
  Br  Br37  1  0.20471476  0.96905056  0.21700441  1
  Br  Br38  1  0.73004425  0.99589590  0.26620495  1
  Br  Br39  1  0.02049175  0.25559062  0.47263201  1
  Br  Br40  1  0.29529257  0.03094974  0.71700199  1
  Br  Br41  1  0.76992978  0.00410389  0.76619090  1
  Br  Br42  1  0.47952415  0.74441009  0.97264204  1
  Br  Br43  1  0.70485809  0.53085408  0.28302509  1
  Br  Br44  1  0.23017613  0.50402273  0.23377968  1
  Br  Br45  1  0.97943674  0.75563139  0.52739778  1
  Br  Br46  1  0.26979002  0.49597709  0.73379573  1
  Br  Br47  1  0.79513357  0.46916354  0.78301763  1
