# generated using pymatgen
data_AlAgH12C2(I3N)2
_symmetry_space_group_name_H-M   'P 1'
_cell_length_a   8.29576879
_cell_length_b   10.87186606
_cell_length_c   8.90023187
_cell_angle_alpha   87.87997169
_cell_angle_beta   89.99879848
_cell_angle_gamma   90.00176198
_symmetry_Int_Tables_number   1
_chemical_formula_structural   AlAgH12C2(I3N)2
_chemical_formula_sum   'Al2 Ag2 H24 C4 I12 N4'
_cell_volume   802.16680718
_cell_formula_units_Z   2
loop_
 _symmetry_equiv_pos_site_id
 _symmetry_equiv_pos_as_xyz
  1  'x, y, z'
loop_
 _atom_site_type_symbol
 _atom_site_label
 _atom_site_symmetry_multiplicity
 _atom_site_fract_x
 _atom_site_fract_y
 _atom_site_fract_z
 _atom_site_occupancy
  C  C0  1  0.49116266  0.24051733  0.43356958  1
  C  C1  1  0.99120883  0.25946291  0.06648675  1
  C  C2  1  0.51387942  0.75733538  0.56030522  1
  C  C3  1  0.01393581  0.74269740  0.93969447  1
  N  N4  1  0.55716432  0.24395929  0.58833731  1
  N  N5  1  0.05710533  0.25605797  0.91167662  1
  N  N6  1  0.46011309  0.74644087  0.40250867  1
  N  N7  1  0.96009809  0.75354831  0.09747774  1
  H  H8  1  0.59087712  0.24974606  0.35372880  1
  H  H9  1  0.42892764  0.15273295  0.42057683  1
  H  H10  1  0.40639666  0.31689584  0.41632342  1
  H  H11  1  0.64590759  0.17793658  0.60792810  1
  H  H12  1  0.60929829  0.32839864  0.61145176  1
  H  H13  1  0.46823592  0.22623708  0.66817575  1
  H  H14  1  0.09100571  0.25040509  0.14625978  1
  H  H15  1  0.90663177  0.18296888  0.08384197  1
  H  H16  1  0.92878110  0.34716701  0.07948278  1
  H  H17  1  0.10947648  0.17169695  0.88859998  1
  H  H18  1  0.14562709  0.32223919  0.89194774  1
  H  H19  1  0.96807059  0.27355775  0.83189033  1
  H  H20  1  0.40782387  0.76933892  0.63118536  1
  H  H21  1  0.57866616  0.67336925  0.59532522  1
  H  H22  1  0.59371818  0.83719751  0.56693054  1
  H  H23  1  0.40066520  0.82502586  0.36088578  1
  H  H24  1  0.38096829  0.67283095  0.39002243  1
  H  H25  1  0.55655702  0.73094129  0.33170178  1
  H  H26  1  0.90791592  0.73067391  0.86877781  1
  H  H27  1  0.07870250  0.82668783  0.90471846  1
  H  H28  1  0.09381204  0.66285947  0.93307578  1
  H  H29  1  0.88094688  0.82715283  0.10995740  1
  H  H30  1  0.90063201  0.67495328  0.13905181  1
  H  H31  1  0.05650715  0.76903812  0.16832459  1
  Al  Al32  1  0.48025625  0.00357651  0.99424243  1
  Al  Al33  1  0.98025600  0.49642468  0.50576005  1
  Ag  Ag34  1  0.87730473  0.98768063  0.52572979  1
  Ag  Ag35  1  0.37739431  0.51228242  0.97429348  1
  I  I36  1  0.50342937  0.26002976  0.01689423  1
  I  I37  1  0.24064430  0.98428585  0.19603491  1
  I  I38  1  0.71275684  0.98547883  0.24588201  1
  I  I39  1  0.00339408  0.23996634  0.48313702  1
  I  I40  1  0.29214200  0.01774113  0.74955387  1
  I  I41  1  0.77285054  0.02085253  0.82293149  1
  I  I42  1  0.53020595  0.74549522  0.97949592  1
  I  I43  1  0.74064997  0.51570873  0.30396278  1
  I  I44  1  0.21276850  0.51452607  0.25412790  1
  I  I45  1  0.03020156  0.75451559  0.52047487  1
  I  I46  1  0.27282345  0.47913591  0.67710550  1
  I  I47  1  0.79212713  0.48230741  0.75044978  1
