# generated using pymatgen
data_AlH5CBr3N2
_symmetry_space_group_name_H-M   'P 1'
_cell_length_a   8.13876559
_cell_length_b   10.45815914
_cell_length_c   9.08024749
_cell_angle_alpha   90.96215431
_cell_angle_beta   90.00150401
_cell_angle_gamma   90.00997797
_symmetry_Int_Tables_number   1
_chemical_formula_structural   AlH5CBr3N2
_chemical_formula_sum   'Al4 H20 C4 Br12 N8'
_cell_volume   772.76995335
_cell_formula_units_Z   4
loop_
 _symmetry_equiv_pos_site_id
 _symmetry_equiv_pos_as_xyz
  1  'x, y, z'
loop_
 _atom_site_type_symbol
 _atom_site_label
 _atom_site_symmetry_multiplicity
 _atom_site_fract_x
 _atom_site_fract_y
 _atom_site_fract_z
 _atom_site_occupancy
  C  C0  1  0.53476034  0.27580634  0.50431885  1
  C  C1  1  0.03482327  0.22423262  0.99576621  1
  C  C2  1  0.49700130  0.79649774  0.51165590  1
  C  C3  1  0.99686229  0.70349962  0.98841183  1
  N  N4  1  0.58388435  0.21712550  0.62295136  1
  N  N5  1  0.40276537  0.24556761  0.42811691  1
  N  N6  1  0.08387038  0.28297391  0.87714719  1
  N  N7  1  0.90276977  0.25431450  0.07194844  1
  N  N8  1  0.59273090  0.76125281  0.61963577  1
  N  N9  1  0.41815772  0.71869143  0.42106301  1
  N  N10  1  0.09246518  0.73871246  0.88031968  1
  N  N11  1  0.91780400  0.78134501  0.07877960  1
  H  H12  1  0.61108353  0.35375417  0.46427497  1
  H  H13  1  0.68495249  0.25103682  0.67721906  1
  H  H14  1  0.51640763  0.14599314  0.67054809  1
  H  H15  1  0.36904797  0.29904385  0.34018772  1
  H  H16  1  0.32361068  0.17581220  0.46106401  1
  H  H17  1  0.11124767  0.14636697  0.03582130  1
  H  H18  1  0.18502142  0.24921794  0.82290973  1
  H  H19  1  0.01630184  0.35404084  0.82955308  1
  H  H20  1  0.86911156  0.20079219  0.15986487  1
  H  H21  1  0.82351864  0.32398165  0.03900206  1
  H  H22  1  0.48154246  0.89857615  0.49456864  1
  H  H23  1  0.64969544  0.82948871  0.68429035  1
  H  H24  1  0.61395252  0.66747661  0.64390751  1
  H  H25  1  0.34108946  0.75596220  0.34445733  1
  H  H26  1  0.41399913  0.62234895  0.43632826  1
  H  H27  1  0.98175630  0.60143244  0.00582739  1
  H  H28  1  0.14959068  0.67047031  0.81581532  1
  H  H29  1  0.11339095  0.83248333  0.85580303  1
  H  H30  1  0.84086795  0.74409167  0.15550878  1
  H  H31  1  0.91326377  0.87762858  0.06312548  1
  Al  Al32  1  0.48197458  0.99812389  0.12350311  1
  Al  Al33  1  0.98212100  0.50185534  0.37652316  1
  Al  Al34  1  0.98615623  0.00162203  0.56912282  1
  Al  Al35  1  0.48622630  0.49842504  0.93082097  1
  Br  Br36  1  0.48057087  0.19627722  0.00984568  1
  Br  Br37  1  0.23101553  0.98394425  0.25149766  1
  Br  Br38  1  0.70606131  0.00834008  0.28494387  1
  Br  Br39  1  0.98064227  0.30371334  0.49019510  1
  Br  Br40  1  0.26611718  0.01591662  0.70851845  1
  Br  Br41  1  0.81951221  0.99584880  0.80758808  1
  Br  Br42  1  0.49447628  0.80660407  0.99328737  1
  Br  Br43  1  0.73114613  0.51595875  0.24851199  1
  Br  Br44  1  0.20620707  0.49163003  0.21508978  1
  Br  Br45  1  0.99465705  0.69344123  0.50661710  1
  Br  Br46  1  0.31956929  0.50423701  0.69242747  1
  Br  Br47  1  0.76621911  0.48410699  0.79142040  1
