# generated using pymatgen
data_SiH5CBr3N2
_symmetry_space_group_name_H-M   'P 1'
_cell_length_a   7.80574661
_cell_length_b   11.26734293
_cell_length_c   8.46727518
_cell_angle_alpha   89.99492967
_cell_angle_beta   89.99991138
_cell_angle_gamma   90.00303495
_symmetry_Int_Tables_number   1
_chemical_formula_structural   SiH5CBr3N2
_chemical_formula_sum   'Si4 H20 C4 Br12 N8'
_cell_volume   744.69705006
_cell_formula_units_Z   4
loop_
 _symmetry_equiv_pos_site_id
 _symmetry_equiv_pos_as_xyz
  1  'x, y, z'
loop_
 _atom_site_type_symbol
 _atom_site_label
 _atom_site_symmetry_multiplicity
 _atom_site_fract_x
 _atom_site_fract_y
 _atom_site_fract_z
 _atom_site_occupancy
  C  C0  1  0.49056819  0.28913699  0.50897982  1
  C  C1  1  0.99049637  0.21103781  0.99104271  1
  C  C2  1  0.50945703  0.78897607  0.49099347  1
  C  C3  1  0.00936843  0.71086379  0.00904032  1
  N  N4  1  0.58008618  0.23827174  0.62108703  1
  N  N5  1  0.39858319  0.23409757  0.40236688  1
  N  N6  1  0.08010661  0.26185070  0.87895044  1
  N  N7  1  0.89851714  0.26612692  0.09758817  1
  N  N8  1  0.60148974  0.73391674  0.59758434  1
  N  N9  1  0.41991459  0.73809899  0.37889371  1
  N  N10  1  0.10142851  0.76584357  0.90239246  1
  N  N11  1  0.91987584  0.76180195  0.12110513  1
  H  H12  1  0.49246996  0.38582977  0.50403068  1
  H  H13  1  0.65033355  0.29085952  0.69513563  1
  H  H14  1  0.59129115  0.14847898  0.63433735  1
  H  H15  1  0.33194381  0.28355185  0.32205421  1
  H  H16  1  0.38589587  0.14403607  0.39668287  1
  H  H17  1  0.99231668  0.11434062  0.99602306  1
  H  H18  1  0.15035688  0.20924139  0.80494777  1
  H  H19  1  0.09140145  0.35164322  0.86568771  1
  H  H20  1  0.83179931  0.21672839  0.17790464  1
  H  H21  1  0.88590106  0.35619941  0.10322672  1
  H  H22  1  0.50754381  0.88565457  0.49595446  1
  H  H23  1  0.66813534  0.78335063  0.67788685  1
  H  H24  1  0.61418176  0.64385206  0.60324418  1
  H  H25  1  0.34964796  0.79067726  0.30487985  1
  H  H26  1  0.40873234  0.64830888  0.36566364  1
  H  H27  1  0.00738546  0.61417839  0.00415280  1
  H  H28  1  0.16803253  0.71634396  0.82213010  1
  H  H29  1  0.11418798  0.85590243  0.89665479  1
  H  H30  1  0.84958982  0.70925987  0.19516684  1
  H  H31  1  0.90875565  0.85159873  0.13428606  1
  Si  Si32  1  0.49763681  0.01539851  0.03471039  1
  Si  Si33  1  0.99765522  0.48459385  0.46531402  1
  Si  Si34  1  0.00239769  0.98460272  0.53470891  1
  Si  Si35  1  0.50239038  0.51540310  0.96532019  1
  Br  Br36  1  0.48044893  0.22496668  0.01268036  1
  Br  Br37  1  0.24010609  0.98718630  0.20116123  1
  Br  Br38  1  0.70590344  0.01528878  0.25511525  1
  Br  Br39  1  0.98046372  0.27503608  0.48729487  1
  Br  Br40  1  0.25992196  0.01279501  0.70118006  1
  Br  Br41  1  0.79411662  0.98472410  0.75509822  1
  Br  Br42  1  0.51954327  0.72496433  0.98726116  1
  Br  Br43  1  0.74008934  0.51282491  0.29887718  1
  Br  Br44  1  0.20588119  0.48474752  0.24485170  1
  Br  Br45  1  0.01957449  0.77503589  0.51271299  1
  Br  Br46  1  0.29414872  0.51523757  0.74486996  1
  Br  Br47  1  0.75994728  0.48719880  0.79887357  1
