# generated using pymatgen
data_PH5CBr3N2
_symmetry_space_group_name_H-M   'P 1'
_cell_length_a   9.04991642
_cell_length_b   11.34068353
_cell_length_c   7.61619583
_cell_angle_alpha   89.99922252
_cell_angle_beta   74.62453397
_cell_angle_gamma   90.00154606
_symmetry_Int_Tables_number   1
_chemical_formula_structural   PH5CBr3N2
_chemical_formula_sum   'P4 H20 C4 Br12 N8'
_cell_volume   753.69059252
_cell_formula_units_Z   4
loop_
 _symmetry_equiv_pos_site_id
 _symmetry_equiv_pos_as_xyz
  1  'x, y, z'
loop_
 _atom_site_type_symbol
 _atom_site_label
 _atom_site_symmetry_multiplicity
 _atom_site_fract_x
 _atom_site_fract_y
 _atom_site_fract_z
 _atom_site_occupancy
  C  C0  1  0.45618556  0.28229964  0.49222890  1
  C  C1  1  0.01717790  0.22203433  0.01726623  1
  C  C2  1  0.54382156  0.78232972  0.50779622  1
  C  C3  1  0.98286637  0.72201653  0.98270020  1
  N  N4  1  0.59745811  0.25831574  0.49449497  1
  N  N5  1  0.36461689  0.20749361  0.44100186  1
  N  N6  1  0.14696245  0.27806132  0.95200653  1
  N  N7  1  0.88230554  0.25685645  0.00478584  1
  N  N8  1  0.63542182  0.70749808  0.55894842  1
  N  N9  1  0.40257885  0.75837196  0.50552300  1
  N  N10  1  0.11768389  0.75681642  0.99528925  1
  N  N11  1  0.85302719  0.77807672  0.04796761  1
  H  H12  1  0.40945697  0.36915387  0.53985787  1
  H  H13  1  0.66784735  0.32568478  0.51335299  1
  H  H14  1  0.64872634  0.17985911  0.44227243  1
  H  H15  1  0.25475227  0.23186786  0.44526253  1
  H  H16  1  0.40139660  0.12590845  0.39165859  1
  H  H17  1  0.01981780  0.13905107  0.08959503  1
  H  H18  1  0.24553671  0.24440144  0.97333686  1
  H  H19  1  0.15780254  0.35953505  0.88883087  1
  H  H20  1  0.79089627  0.20283498  0.06083804  1
  H  H21  1  0.86559731  0.33124476  0.93620943  1
  H  H22  1  0.59056979  0.86920440  0.46023061  1
  H  H23  1  0.74527793  0.73186203  0.55469989  1
  H  H24  1  0.59863466  0.62589650  0.60822447  1
  H  H25  1  0.33217453  0.82574606  0.48671578  1
  H  H26  1  0.35129068  0.67989328  0.55770479  1
  H  H27  1  0.98019316  0.63907548  0.91032899  1
  H  H28  1  0.20910503  0.70278770  0.93921733  1
  H  H29  1  0.13440752  0.83117641  0.06391073  1
  H  H30  1  0.75449834  0.74443794  0.02655890  1
  H  H31  1  0.84222113  0.85952042  0.11116769  1
  P  P32  1  0.52667360  0.02764520  0.94668071  1
  P  P33  1  0.91436888  0.44343581  0.45586648  1
  P  P34  1  0.08557604  0.94345138  0.54418255  1
  P  P35  1  0.47326951  0.52764229  0.05332075  1
  Br  Br36  1  0.51654350  0.23102981  0.97159159  1
  Br  Br37  1  0.18244225  0.99700391  0.24338836  1
  Br  Br38  1  0.71009116  0.02635130  0.24002383  1
  Br  Br39  1  0.97716052  0.25222519  0.49545436  1
  Br  Br40  1  0.35632776  0.00520894  0.76657496  1
  Br  Br41  1  0.76204726  0.00246913  0.73398483  1
  Br  Br42  1  0.48345770  0.73102745  0.02839417  1
  Br  Br43  1  0.64358472  0.50518998  0.23346204  1
  Br  Br44  1  0.23788519  0.50248201  0.26599936  1
  Br  Br45  1  0.02285159  0.75221914  0.50462388  1
  Br  Br46  1  0.28991381  0.52635731  0.75992387  1
  Br  Br47  1  0.81751678  0.49701202  0.75665019  1
