# generated using pymatgen
data_CaH5CBr3N2
_symmetry_space_group_name_H-M   'P 1'
_cell_length_a   8.13255611
_cell_length_b   11.25134765
_cell_length_c   8.12588595
_cell_angle_alpha   89.99868955
_cell_angle_beta   89.99961300
_cell_angle_gamma   90.00299063
_symmetry_Int_Tables_number   1
_chemical_formula_structural   CaH5CBr3N2
_chemical_formula_sum   'Ca4 H20 C4 Br12 N8'
_cell_volume   743.53657026
_cell_formula_units_Z   4
loop_
 _symmetry_equiv_pos_site_id
 _symmetry_equiv_pos_as_xyz
  1  'x, y, z'
loop_
 _atom_site_type_symbol
 _atom_site_label
 _atom_site_symmetry_multiplicity
 _atom_site_fract_x
 _atom_site_fract_y
 _atom_site_fract_z
 _atom_site_occupancy
  C  C0  1  0.49499416  0.28862162  0.49698470  1
  C  C1  1  0.99496740  0.21160142  0.00298777  1
  C  C2  1  0.50506957  0.78840062  0.50300233  1
  C  C3  1  0.00496733  0.71138002  0.99700797  1
  N  N4  1  0.59872484  0.23660758  0.59708562  1
  N  N5  1  0.39591823  0.23391488  0.39498911  1
  N  N6  1  0.09873862  0.26364510  0.90293751  1
  N  N7  1  0.89592613  0.26629337  0.10502753  1
  N  N8  1  0.60411646  0.73370532  0.60503583  1
  N  N9  1  0.40131295  0.73635929  0.40293838  1
  N  N10  1  0.10403814  0.76609119  0.89500311  1
  N  N11  1  0.90122248  0.76338927  0.09709249  1
  H  H12  1  0.49054056  0.38543808  0.49879470  1
  H  H13  1  0.67069569  0.28768109  0.67188201  1
  H  H14  1  0.61197322  0.14659425  0.60487439  1
  H  H15  1  0.31987616  0.28339148  0.32214607  1
  H  H16  1  0.38993524  0.14368405  0.38382164  1
  H  H17  1  0.99043387  0.11479525  0.00108791  1
  H  H18  1  0.17069485  0.21258583  0.82808392  1
  H  H19  1  0.11207086  0.35364814  0.89522266  1
  H  H20  1  0.81985390  0.21684361  0.17782451  1
  H  H21  1  0.89002448  0.35654519  0.11626556  1
  H  H22  1  0.50958204  0.88520934  0.50111791  1
  H  H23  1  0.68017576  0.78315476  0.67784326  1
  H  H24  1  0.61003897  0.64345466  0.61626208  1
  H  H25  1  0.32934962  0.78741954  0.32808694  1
  H  H26  1  0.38800504  0.64635631  0.39521013  1
  H  H27  1  0.00943793  0.61456931  0.99884218  1
  H  H28  1  0.18009786  0.71660757  0.82216959  1
  H  H29  1  0.11000567  0.85631316  0.88381502  1
  H  H30  1  0.82925912  0.71232760  0.17189103  1
  H  H31  1  0.88795089  0.85341782  0.10486014  1
  Ca  Ca32  1  0.49948322  0.99998468  0.99727719  1
  Ca  Ca33  1  0.99949989  0.50001752  0.50272241  1
  Ca  Ca34  1  0.00051174  0.00001689  0.49727538  1
  Ca  Ca35  1  0.50050992  0.49998424  0.00271789  1
  Br  Br36  1  0.49870054  0.25000822  0.99681087  1
  Br  Br37  1  0.21520363  0.98634789  0.21268185  1
  Br  Br38  1  0.71562305  0.01437024  0.28187081  1
  Br  Br39  1  0.99869486  0.25000650  0.50319084  1
  Br  Br40  1  0.28479933  0.01366158  0.71267560  1
  Br  Br41  1  0.78437583  0.98562412  0.78187624  1
  Br  Br42  1  0.50127732  0.74999483  0.00317899  1
  Br  Br43  1  0.71529466  0.51369582  0.28722987  1
  Br  Br44  1  0.21569172  0.48565533  0.21818592  1
  Br  Br45  1  0.00133040  0.74999313  0.49679920  1
  Br  Br46  1  0.28431455  0.51433783  0.71818992  1
  Br  Br47  1  0.78471064  0.48631744  0.78722779  1
