# generated using pymatgen
data_ZnH5CBr3N2
_symmetry_space_group_name_H-M   'P 1'
_cell_length_a   7.03380114
_cell_length_b   14.69019786
_cell_length_c   7.29625755
_cell_angle_alpha   89.99800494
_cell_angle_beta   90.00074542
_cell_angle_gamma   90.01583688
_symmetry_Int_Tables_number   1
_chemical_formula_structural   ZnH5CBr3N2
_chemical_formula_sum   'Zn4 H20 C4 Br12 N8'
_cell_volume   753.90716267
_cell_formula_units_Z   4
loop_
 _symmetry_equiv_pos_site_id
 _symmetry_equiv_pos_as_xyz
  1  'x, y, z'
loop_
 _atom_site_type_symbol
 _atom_site_label
 _atom_site_symmetry_multiplicity
 _atom_site_fract_x
 _atom_site_fract_y
 _atom_site_fract_z
 _atom_site_occupancy
  C  C0  1  0.43125552  0.32465431  0.48258409  1
  C  C1  1  0.93072895  0.17537010  0.01785283  1
  C  C2  1  0.56864930  0.82467240  0.51745761  1
  C  C3  1  0.06954103  0.67536051  0.98209974  1
  N  N4  1  0.43400423  0.35708802  0.65001285  1
  N  N5  1  0.46181469  0.23939414  0.43809021  1
  N  N6  1  0.93337128  0.14294203  0.85046584  1
  N  N7  1  0.96161524  0.26063868  0.06235635  1
  N  N8  1  0.53787761  0.73942044  0.56195551  1
  N  N9  1  0.56581290  0.85712591  0.35006767  1
  N  N10  1  0.03842640  0.76056778  0.93755773  1
  N  N11  1  0.06685558  0.64291665  0.14950034  1
  H  H12  1  0.40214512  0.37242722  0.37091349  1
  H  H13  1  0.39685921  0.42373054  0.66972397  1
  H  H14  1  0.45236146  0.31633617  0.76265743  1
  H  H15  1  0.45673985  0.22012153  0.30277591  1
  H  H16  1  0.48081290  0.18936111  0.53334877  1
  H  H17  1  0.90142780  0.12763910  0.12955558  1
  H  H18  1  0.89604294  0.07630652  0.83074292  1
  H  H19  1  0.95196433  0.18366646  0.73780129  1
  H  H20  1  0.95667887  0.27989139  0.19767942  1
  H  H21  1  0.98083579  0.31064995  0.96710102  1
  H  H22  1  0.59801256  0.87241770  0.62913230  1
  H  H23  1  0.54308330  0.72011851  0.69724750  1
  H  H24  1  0.51857400  0.68941519  0.46668306  1
  H  H25  1  0.60310854  0.92375961  0.33033643  1
  H  H26  1  0.54728759  0.81639139  0.23740470  1
  H  H27  1  0.09909040  0.62764061  0.87043449  1
  H  H28  1  0.04334627  0.77983424  0.80223031  1
  H  H29  1  0.01885045  0.81056756  0.03278712  1
  H  H30  1  0.10432219  0.57631492  0.16926073  1
  H  H31  1  0.04801646  0.68362875  0.26214302  1
  Zn  Zn32  1  0.43670388  0.03694065  0.92948589  1
  Zn  Zn33  1  0.93727965  0.46301099  0.57053130  1
  Zn  Zn34  1  0.06269254  0.96298122  0.42944955  1
  Zn  Zn35  1  0.56343471  0.53695426  0.07058198  1
  Br  Br36  1  0.45361373  0.19567075  0.98910443  1
  Br  Br37  1  0.18733471  0.96200338  0.10684466  1
  Br  Br38  1  0.79070374  0.05722464  0.43281571  1
  Br  Br39  1  0.95409210  0.30425277  0.51124234  1
  Br  Br40  1  0.31182565  0.03801927  0.60692548  1
  Br  Br41  1  0.70864424  0.94268243  0.93261556  1
  Br  Br42  1  0.54662828  0.69568697  0.01092972  1
  Br  Br43  1  0.68833179  0.53813843  0.39313491  1
  Br  Br44  1  0.29142342  0.44267558  0.06744864  1
  Br  Br45  1  0.04563163  0.80421792  0.48867840  1
  Br  Br46  1  0.20946596  0.55719896  0.56718495  1
  Br  Br47  1  0.81270055  0.46203528  0.89317104  1
