# generated using pymatgen
data_GaH5CBr3N2
_symmetry_space_group_name_H-M   'P 1'
_cell_length_a   8.62302003
_cell_length_b   10.04946903
_cell_length_c   8.96815435
_cell_angle_alpha   90.01990815
_cell_angle_beta   90.01778514
_cell_angle_gamma   89.49533409
_symmetry_Int_Tables_number   1
_chemical_formula_structural   GaH5CBr3N2
_chemical_formula_sum   'Ga4 H20 C4 Br12 N8'
_cell_volume   777.12108346
_cell_formula_units_Z   4
loop_
 _symmetry_equiv_pos_site_id
 _symmetry_equiv_pos_as_xyz
  1  'x, y, z'
loop_
 _atom_site_type_symbol
 _atom_site_label
 _atom_site_symmetry_multiplicity
 _atom_site_fract_x
 _atom_site_fract_y
 _atom_site_fract_z
 _atom_site_occupancy
  C  C0  1  0.49673405  0.30416709  0.49047338  1
  C  C1  1  0.02721297  0.25274856  0.04303888  1
  C  C2  1  0.47232536  0.74683355  0.54325649  1
  C  C3  1  0.00367674  0.69591051  0.98985019  1
  N  N4  1  0.59349422  0.24279706  0.58053516  1
  N  N5  1  0.39712080  0.24657177  0.40093061  1
  N  N6  1  0.08730794  0.27674847  0.91138693  1
  N  N7  1  0.87963677  0.26915853  0.07492285  1
  N  N8  1  0.62035158  0.73237031  0.57449699  1
  N  N9  1  0.41206041  0.72255829  0.41172701  1
  N  N10  1  0.10372088  0.75414806  0.90138668  1
  N  N11  1  0.90705297  0.75656689  0.08062762  1
  H  H12  1  0.49945191  0.41259560  0.48923249  1
  H  H13  1  0.66577254  0.29941144  0.64646565  1
  H  H14  1  0.60140691  0.14191235  0.58751659  1
  H  H15  1  0.32728343  0.30695344  0.33591913  1
  H  H16  1  0.38221055  0.14617161  0.39794253  1
  H  H17  1  0.10331523  0.21363988  0.12987298  1
  H  H18  1  0.20396693  0.26846765  0.89584806  1
  H  H19  1  0.02253553  0.32405046  0.83092999  1
  H  H20  1  0.84109476  0.25203845  0.18027687  1
  H  H21  1  0.80488507  0.31086600  0.99894015  1
  H  H22  1  0.39596505  0.78439127  0.63069307  1
  H  H23  1  0.65911421  0.74989713  0.67972356  1
  H  H24  1  0.69561714  0.69235345  0.49793214  1
  H  H25  1  0.29516034  0.72911358  0.39678539  1
  H  H26  1  0.47723479  0.67617460  0.33087146  1
  H  H27  1  0.00033367  0.58753014  0.98676975  1
  H  H28  1  0.17328488  0.69415240  0.83569618  1
  H  H29  1  0.11929890  0.85449580  0.90002169  1
  H  H30  1  0.83439087  0.69950215  0.14560401  1
  H  H31  1  0.89975561  0.85737571  0.08932244  1
  Ga  Ga32  1  0.48042611  0.98860105  0.09654495  1
  Ga  Ga33  1  0.01536932  0.49915381  0.52709295  1
  Ga  Ga34  1  0.02055410  0.01111505  0.59662344  1
  Ga  Ga35  1  0.48157019  0.50066049  0.02702904  1
  Br  Br36  1  0.49944119  0.19397108  0.96914763  1
  Br  Br37  1  0.22854097  0.97219764  0.19588797  1
  Br  Br38  1  0.66808426  0.98485018  0.28704665  1
  Br  Br39  1  0.98112387  0.19827275  0.44088641  1
  Br  Br40  1  0.27248874  0.02749411  0.69588600  1
  Br  Br41  1  0.83250099  0.01483665  0.78661172  1
  Br  Br42  1  0.52018033  0.80136472  0.94092887  1
  Br  Br43  1  0.70645104  0.53387327  0.27267891  1
  Br  Br44  1  0.22471992  0.49304639  0.21644611  1
  Br  Br45  1  0.00122138  0.80583390  0.46876118  1
  Br  Br46  1  0.27294474  0.50678186  0.71580143  1
  Br  Br47  1  0.79162916  0.46633783  0.77373458  1
