# generated using pymatgen
data_GeH5CBr3N2
_symmetry_space_group_name_H-M   'P 1'
_cell_length_a   8.15119727
_cell_length_b   11.26241244
_cell_length_c   8.15172478
_cell_angle_alpha   90.18633643
_cell_angle_beta   89.33817378
_cell_angle_gamma   90.17914891
_symmetry_Int_Tables_number   1
_chemical_formula_structural   GeH5CBr3N2
_chemical_formula_sum   'Ge4 H20 C4 Br12 N8'
_cell_volume   748.28837198
_cell_formula_units_Z   4
loop_
 _symmetry_equiv_pos_site_id
 _symmetry_equiv_pos_as_xyz
  1  'x, y, z'
loop_
 _atom_site_type_symbol
 _atom_site_label
 _atom_site_symmetry_multiplicity
 _atom_site_fract_x
 _atom_site_fract_y
 _atom_site_fract_z
 _atom_site_occupancy
  C  C0  1  0.49278095  0.28874821  0.50158009  1
  C  C1  1  0.99462929  0.21126172  0.00466214  1
  C  C2  1  0.50715962  0.78886514  0.49827567  1
  C  C3  1  0.00619740  0.71089761  0.99626823  1
  N  N4  1  0.59428181  0.23754922  0.60251720  1
  N  N5  1  0.39299166  0.23370486  0.40181971  1
  N  N6  1  0.09925662  0.26364025  0.90512626  1
  N  N7  1  0.89497867  0.26499406  0.10766475  1
  N  N8  1  0.60660905  0.73486083  0.59844800  1
  N  N9  1  0.40586947  0.73661161  0.39719032  1
  N  N10  1  0.10682590  0.76445194  0.89403207  1
  N  N11  1  0.90412077  0.76347539  0.09817834  1
  H  H12  1  0.49099243  0.38547977  0.50082814  1
  H  H13  1  0.66675882  0.28962092  0.67484519  1
  H  H14  1  0.60579607  0.14764902  0.61313604  1
  H  H15  1  0.31893945  0.28314974  0.32868359  1
  H  H16  1  0.38545633  0.14351523  0.39099133  1
  H  H17  1  0.99007079  0.11452181  0.00130118  1
  H  H18  1  0.17073380  0.21230274  0.82973459  1
  H  H19  1  0.11478770  0.35349911  0.89818521  1
  H  H20  1  0.81909466  0.21441315  0.17973498  1
  H  H21  1  0.88832679  0.35507222  0.12082393  1
  H  H22  1  0.50935928  0.88560007  0.49906255  1
  H  H23  1  0.68019483  0.78512218  0.67199528  1
  H  H24  1  0.61481107  0.64470171  0.60802435  1
  H  H25  1  0.33401704  0.78789239  0.32420231  1
  H  H26  1  0.39278313  0.64667381  0.38752792  1
  H  H27  1  0.00759145  0.61409708  0.99671476  1
  H  H28  1  0.18126304  0.71368718  0.82070529  1
  H  H29  1  0.11593669  0.85454952  0.88305280  1
  H  H30  1  0.83079112  0.71220491  0.17185141  1
  H  H31  1  0.89296686  0.85342969  0.10930369  1
  Ge  Ge32  1  0.47338337  0.01462156  0.98873864  1
  Ge  Ge33  1  0.99117500  0.51521740  0.47601901  1
  Ge  Ge34  1  0.97265394  0.01546886  0.49806487  1
  Ge  Ge35  1  0.50060186  0.51504725  0.97511520  1
  Br  Br36  1  0.49480984  0.23591884  0.00695253  1
  Br  Br37  1  0.23153023  0.98527545  0.20134888  1
  Br  Br38  1  0.73083330  0.01322238  0.29105219  1
  Br  Br39  1  0.99327530  0.23685166  0.51130140  1
  Br  Br40  1  0.29145623  0.01414617  0.72809820  1
  Br  Br41  1  0.79009275  0.98632580  0.76212717  1
  Br  Br42  1  0.51054107  0.73652532  0.99679485  1
  Br  Br43  1  0.73064945  0.51425726  0.29392060  1
  Br  Br44  1  0.20424106  0.48511872  0.23434449  1
  Br  Br45  1  0.01035792  0.73653726  0.49384044  1
  Br  Br46  1  0.29352253  0.51292998  0.73327153  1
  Br  Br47  1  0.76452293  0.48635596  0.79264743  1
