# generated using pymatgen
data_SrH5CBr3N2
_symmetry_space_group_name_H-M   'P 1'
_cell_length_a   8.30222543
_cell_length_b   11.73779883
_cell_length_c   8.29121637
_cell_angle_alpha   90.00206643
_cell_angle_beta   90.00039429
_cell_angle_gamma   89.99816300
_symmetry_Int_Tables_number   1
_chemical_formula_structural   SrH5CBr3N2
_chemical_formula_sum   'Sr4 H20 C4 Br12 N8'
_cell_volume   807.97780619
_cell_formula_units_Z   4
loop_
 _symmetry_equiv_pos_site_id
 _symmetry_equiv_pos_as_xyz
  1  'x, y, z'
loop_
 _atom_site_type_symbol
 _atom_site_label
 _atom_site_symmetry_multiplicity
 _atom_site_fract_x
 _atom_site_fract_y
 _atom_site_fract_z
 _atom_site_occupancy
  C  C0  1  0.49184146  0.29225221  0.49578874  1
  C  C1  1  0.99179802  0.20790738  0.00418323  1
  C  C2  1  0.50825960  0.79208891  0.50420841  1
  C  C3  1  0.00811614  0.70774953  0.99580444  1
  N  N4  1  0.59435695  0.24185356  0.59274401  1
  N  N5  1  0.39492735  0.24012679  0.39493154  1
  N  N6  1  0.09438448  0.25830912  0.90728015  1
  N  N7  1  0.89492796  0.26002862  0.10507066  1
  N  N8  1  0.60510657  0.73997398  0.60508559  1
  N  N9  1  0.40568335  0.74169105  0.40727513  1
  N  N10  1  0.10502563  0.75986897  0.89496478  1
  N  N11  1  0.90556623  0.75814845  0.09275019  1
  H  H12  1  0.48652104  0.38501233  0.49955914  1
  H  H13  1  0.66512346  0.28976001  0.66709579  1
  H  H14  1  0.60729891  0.15552984  0.59680674  1
  H  H15  1  0.31944085  0.28736566  0.32428945  1
  H  H16  1  0.39142111  0.15365697  0.38342701  1
  H  H17  1  0.98640494  0.11515300  0.00029489  1
  H  H18  1  0.16512101  0.21041879  0.83289999  1
  H  H19  1  0.10741698  0.34462642  0.90333932  1
  H  H20  1  0.81939171  0.21279488  0.17566421  1
  H  H21  1  0.89148914  0.34649751  0.11669123  1
  H  H22  1  0.51363543  0.88484878  0.50032657  1
  H  H23  1  0.68064135  0.78721058  0.67570606  1
  H  H24  1  0.60856647  0.65349843  0.61670693  1
  H  H25  1  0.33496119  0.78957717  0.33288923  1
  H  H26  1  0.39267512  0.65537432  0.40331516  1
  H  H27  1  0.01343994  0.61499016  0.99959743  1
  H  H28  1  0.18053516  0.71263041  0.82433246  1
  H  H29  1  0.10852719  0.84634398  0.88344286  1
  H  H30  1  0.83480154  0.71024781  0.16708269  1
  H  H31  1  0.89261140  0.84447006  0.09678240  1
  Sr  Sr32  1  0.49952421  0.99993399  0.99620464  1
  Sr  Sr33  1  0.99954907  0.50007548  0.50379188  1
  Sr  Sr34  1  0.00046987  0.00007464  0.49620199  1
  Sr  Sr35  1  0.50045592  0.49993332  0.00378993  1
  Br  Br36  1  0.49706432  0.25000357  0.99299797  1
  Br  Br37  1  0.20002711  0.98200460  0.19643254  1
  Br  Br38  1  0.69862282  0.02329627  0.29788297  1
  Br  Br39  1  0.99706782  0.25001106  0.50700070  1
  Br  Br40  1  0.29997655  0.01800596  0.69642863  1
  Br  Br41  1  0.80137562  0.97670448  0.79788790  1
  Br  Br42  1  0.50288770  0.74999764  0.00699315  1
  Br  Br43  1  0.70019852  0.51799138  0.30339124  1
  Br  Br44  1  0.19871050  0.47675143  0.20218890  1
  Br  Br45  1  0.00298390  0.75000490  0.49299406  1
  Br  Br46  1  0.30129037  0.52325089  0.70219644  1
  Br  Br47  1  0.79979734  0.48201768  0.80338538  1
