# generated using pymatgen
data_H5PdCBr3N2
_symmetry_space_group_name_H-M   'P 1'
_cell_length_a   8.93988181
_cell_length_b   7.50485875
_cell_length_c   10.85447907
_cell_angle_alpha   89.98926262
_cell_angle_beta   90.00075161
_cell_angle_gamma   89.06887854
_symmetry_Int_Tables_number   1
_chemical_formula_structural   H5PdCBr3N2
_chemical_formula_sum   'H20 Pd4 C4 Br12 N8'
_cell_volume   728.15850595
_cell_formula_units_Z   4
loop_
 _symmetry_equiv_pos_site_id
 _symmetry_equiv_pos_as_xyz
  1  'x, y, z'
loop_
 _atom_site_type_symbol
 _atom_site_label
 _atom_site_symmetry_multiplicity
 _atom_site_fract_x
 _atom_site_fract_y
 _atom_site_fract_z
 _atom_site_occupancy
  C  C0  1  0.49524092  0.26715455  0.48232153  1
  C  C1  1  0.99465387  0.23943351  0.01861467  1
  C  C2  1  0.50580313  0.76016072  0.51913657  1
  C  C3  1  0.00466837  0.73331792  0.98201673  1
  N  N4  1  0.50178240  0.24698345  0.60216405  1
  N  N5  1  0.37054653  0.25782923  0.41865890  1
  N  N6  1  0.00232272  0.25252413  0.89835069  1
  N  N7  1  0.86814864  0.23764552  0.08021294  1
  N  N8  1  0.63248768  0.76233945  0.58047573  1
  N  N9  1  0.49776419  0.74702718  0.39888608  1
  N  N10  1  0.12958511  0.74192253  0.91861282  1
  N  N11  1  0.99779542  0.75364705  0.10183146  1
  H  H12  1  0.59934582  0.29313942  0.43285495  1
  H  H13  1  0.60035547  0.25942899  0.64846068  1
  H  H14  1  0.40749703  0.22573431  0.65322073  1
  H  H15  1  0.36979011  0.28171447  0.32568994  1
  H  H16  1  0.27055118  0.23618830  0.46133699  1
  H  H17  1  0.09963979  0.22958249  0.07023574  1
  H  H18  1  0.10315114  0.25052042  0.85437823  1
  H  H19  1  0.90811003  0.26014977  0.84496852  1
  H  H20  1  0.86751816  0.22058852  0.17382798  1
  H  H21  1  0.76754731  0.24255032  0.03552377  1
  H  H22  1  0.40096310  0.76964808  0.57097218  1
  H  H23  1  0.63334560  0.77951396  0.67408247  1
  H  H24  1  0.73297563  0.75788464  0.53558521  1
  H  H25  1  0.39677517  0.74873763  0.35515385  1
  H  H26  1  0.59182034  0.73971556  0.34530698  1
  H  H27  1  0.90061509  0.70784757  0.93232248  1
  H  H28  1  0.13052151  0.71784232  0.82565902  1
  H  H29  1  0.22954567  0.76292490  0.96149494  1
  H  H30  1  0.89897548  0.74182462  0.14783226  1
  H  H31  1  0.09197510  0.77444349  0.15312832  1
  Pd  Pd32  1  0.50171592  0.99143974  0.00010544  1
  Pd  Pd33  1  0.00166655  0.50823970  0.49944979  1
  Pd  Pd34  1  0.99805730  0.00858011  0.49985460  1
  Pd  Pd35  1  0.49810585  0.49177478  0.99971372  1
  Br  Br36  1  0.37674946  0.24270400  0.89700802  1
  Br  Br37  1  0.30997588  0.99741153  0.16269036  1
  Br  Br38  1  0.80158452  0.00930569  0.34056789  1
  Br  Br39  1  0.87634361  0.26196152  0.60249657  1
  Br  Br40  1  0.18992680  0.00256257  0.66236455  1
  Br  Br41  1  0.69808808  0.99075858  0.84075852  1
  Br  Br42  1  0.62334638  0.73802408  0.10279473  1
  Br  Br43  1  0.81422509  0.50193927  0.33408447  1
  Br  Br44  1  0.30591357  0.49132777  0.16188769  1
  Br  Br45  1  0.12305076  0.75736536  0.39677453  1
  Br  Br46  1  0.19370470  0.50871325  0.66174532  1
  Br  Br47  1  0.68574716  0.49799004  0.83449114  1
