# generated using pymatgen
data_CdH5CBr3N2
_symmetry_space_group_name_H-M   'P 1'
_cell_length_a   7.90292556
_cell_length_b   10.90824961
_cell_length_c   8.09010435
_cell_angle_alpha   89.99626515
_cell_angle_beta   90.00701624
_cell_angle_gamma   89.99902350
_symmetry_Int_Tables_number   1
_chemical_formula_structural   CdH5CBr3N2
_chemical_formula_sum   'Cd4 H20 C4 Br12 N8'
_cell_volume   697.42430367
_cell_formula_units_Z   4
loop_
 _symmetry_equiv_pos_site_id
 _symmetry_equiv_pos_as_xyz
  1  'x, y, z'
loop_
 _atom_site_type_symbol
 _atom_site_label
 _atom_site_symmetry_multiplicity
 _atom_site_fract_x
 _atom_site_fract_y
 _atom_site_fract_z
 _atom_site_occupancy
  C  C0  1  0.49640370  0.28788765  0.49790417  1
  C  C1  1  0.99635794  0.21216465  0.00205994  1
  C  C2  1  0.50352150  0.78782243  0.50209170  1
  C  C3  1  0.00350762  0.71207185  0.99788598  1
  N  N4  1  0.59869119  0.23484879  0.60301145  1
  N  N5  1  0.40156441  0.23110740  0.38976852  1
  N  N6  1  0.09870348  0.26522588  0.89704161  1
  N  N7  1  0.90152550  0.26893301  0.11019713  1
  N  N8  1  0.59839450  0.73108242  0.61024734  1
  N  N9  1  0.40124854  0.73475308  0.39702490  1
  N  N10  1  0.09829238  0.76882539  0.88967028  1
  N  N11  1  0.90125816  0.76514108  0.10295745  1
  H  H12  1  0.48916611  0.38750075  0.50084933  1
  H  H13  1  0.66788158  0.28821620  0.68171643  1
  H  H14  1  0.61420558  0.14212097  0.61109757  1
  H  H15  1  0.32573612  0.28199441  0.31402889  1
  H  H16  1  0.39875157  0.13811700  0.37628285  1
  H  H17  1  0.98905978  0.11255791  0.99900523  1
  H  H18  1  0.16791459  0.21187294  0.81834991  1
  H  H19  1  0.11429321  0.35794554  0.88908296  1
  H  H20  1  0.82565847  0.21804078  0.18587312  1
  H  H21  1  0.89875918  0.36191471  0.12376597  1
  H  H22  1  0.51074136  0.88744752  0.49911593  1
  H  H23  1  0.67421641  0.78199194  0.68594861  1
  H  H24  1  0.60133144  0.63808868  0.62372231  1
  H  H25  1  0.33205484  0.78807025  0.31825600  1
  H  H26  1  0.38569733  0.64202158  0.38904868  1
  H  H27  1  0.01079701  0.61245911  0.00090980  1
  H  H28  1  0.17411895  0.71791487  0.81399287  1
  H  H29  1  0.10118091  0.86180962  0.87617120  1
  H  H30  1  0.83213911  0.71180699  0.18176239  1
  H  H31  1  0.88568636  0.85786459  0.11092258  1
  Cd  Cd32  1  0.49857583  0.99675784  0.99288285  1
  Cd  Cd33  1  0.99799709  0.50335985  0.50756398  1
  Cd  Cd34  1  0.00282082  0.00339548  0.49215410  1
  Cd  Cd35  1  0.50225878  0.49673601  0.00777308  1
  Br  Br36  1  0.50052660  0.24691537  0.99693669  1
  Br  Br37  1  0.22161853  0.98481960  0.20672065  1
  Br  Br38  1  0.72229568  0.01545851  0.28504480  1
  Br  Br39  1  0.00053385  0.25319157  0.50301923  1
  Br  Br40  1  0.27887193  0.01515498  0.70753787  1
  Br  Br41  1  0.77733169  0.98452126  0.78538630  1
  Br  Br42  1  0.49916725  0.74617391  0.00294477  1
  Br  Br43  1  0.72158664  0.51519914  0.29315921  1
  Br  Br44  1  0.22221042  0.48453537  0.21509182  1
  Br  Br45  1  0.99921571  0.75390803  0.49696333  1
  Br  Br46  1  0.27735537  0.51546746  0.71456823  1
  Br  Br47  1  0.77879431  0.48484862  0.79259473  1
