# generated using pymatgen
data_YAlH12C2(I3N)2
_symmetry_space_group_name_H-M   'P 1'
_cell_length_a   8.50949568
_cell_length_b   12.33121954
_cell_length_c   8.39894032
_cell_angle_alpha   91.55335522
_cell_angle_beta   90.00838653
_cell_angle_gamma   89.97619176
_symmetry_Int_Tables_number   1
_chemical_formula_structural   YAlH12C2(I3N)2
_chemical_formula_sum   'Y2 Al2 H24 C4 I12 N4'
_cell_volume   880.99750684
_cell_formula_units_Z   2
loop_
 _symmetry_equiv_pos_site_id
 _symmetry_equiv_pos_as_xyz
  1  'x, y, z'
loop_
 _atom_site_type_symbol
 _atom_site_label
 _atom_site_symmetry_multiplicity
 _atom_site_fract_x
 _atom_site_fract_y
 _atom_site_fract_z
 _atom_site_occupancy
  C  C0  1  0.39611898  0.25025826  0.41517888  1
  C  C1  1  0.89736230  0.25000994  0.08600391  1
  C  C2  1  0.60387903  0.74974554  0.58483451  1
  C  C3  1  0.10264432  0.74999106  0.91401063  1
  N  N4  1  0.53603532  0.25076146  0.52074787  1
  N  N5  1  0.03659639  0.24930781  0.97954404  1
  N  N6  1  0.46396150  0.74924239  0.47926674  1
  N  N7  1  0.96341235  0.75068946  0.02047285  1
  H  H8  1  0.43588766  0.24918055  0.29114765  1
  H  H9  1  0.32676490  0.17767007  0.43778746  1
  H  H10  1  0.32688854  0.32348300  0.44062611  1
  H  H11  1  0.60429418  0.18194188  0.49742121  1
  H  H12  1  0.60492345  0.31849021  0.49923692  1
  H  H13  1  0.50592012  0.25214519  0.64129534  1
  H  H14  1  0.93798378  0.25112859  0.20976506  1
  H  H15  1  0.82793040  0.17682953  0.06115006  1
  H  H16  1  0.82791328  0.32265712  0.06378263  1
  H  H17  1  0.10553705  0.18150119  0.00071390  1
  H  H18  1  0.10504406  0.31805067  0.00240864  1
  H  H19  1  0.00575053  0.24790409  0.85918500  1
  H  H20  1  0.56411096  0.75082394  0.70886645  1
  H  H21  1  0.67310806  0.67651988  0.55938808  1
  H  H22  1  0.67323360  0.82233278  0.56222523  1
  H  H23  1  0.39570302  0.81806157  0.50259466  1
  H  H24  1  0.39507385  0.68151309  0.50077898  1
  H  H25  1  0.49407572  0.74785877  0.35871959  1
  H  H26  1  0.06202087  0.74887475  0.79025028  1
  H  H27  1  0.17207626  0.82317108  0.93886721  1
  H  H28  1  0.17209433  0.67734351  0.93622686  1
  H  H29  1  0.89446893  0.81849525  0.99930640  1
  H  H30  1  0.89496667  0.68194588  0.99760708  1
  H  H31  1  0.99426019  0.75209209  0.14083161  1
  Al  Al32  1  0.50000173  0.00000961  0.00000780  1
  Al  Al33  1  0.99998589  0.50000229  0.49998743  1
  Y  Y34  1  0.00000161  0.00000210  0.50001048  1
  Y  Y35  1  0.49999723  0.50000917  0.99999295  1
  I  I36  1  0.47571180  0.25638094  0.94246708  1
  I  I37  1  0.17171657  0.01838725  0.18571378  1
  I  I38  1  0.68772416  0.00974853  0.32914878  1
  I  I39  1  0.97507477  0.24358564  0.55809507  1
  I  I40  1  0.31228243  0.99025697  0.67086850  1
  I  I41  1  0.82828996  0.98161116  0.81430578  1
  I  I42  1  0.52429125  0.74363376  0.05754336  1
  I  I43  1  0.67159603  0.48149597  0.31434607  1
  I  I44  1  0.18776171  0.49043096  0.17078503  1
  I  I45  1  0.02492460  0.75641750  0.44192350  1
  I  I46  1  0.32838807  0.51850890  0.68564828  1
  I  I47  1  0.81223531  0.50957689  0.82921086  1
