# generated using pymatgen
data_InH5CBr3N2
_symmetry_space_group_name_H-M   'P 1'
_cell_length_a   8.21980339
_cell_length_b   11.27208905
_cell_length_c   8.21550973
_cell_angle_alpha   90.08316807
_cell_angle_beta   89.99985990
_cell_angle_gamma   90.00091204
_symmetry_Int_Tables_number   1
_chemical_formula_structural   InH5CBr3N2
_chemical_formula_sum   'In4 H20 C4 Br12 N8'
_cell_volume   761.20195948
_cell_formula_units_Z   4
loop_
 _symmetry_equiv_pos_site_id
 _symmetry_equiv_pos_as_xyz
  1  'x, y, z'
loop_
 _atom_site_type_symbol
 _atom_site_label
 _atom_site_symmetry_multiplicity
 _atom_site_fract_x
 _atom_site_fract_y
 _atom_site_fract_z
 _atom_site_occupancy
  C  C0  1  0.49726055  0.28866313  0.49763240  1
  C  C1  1  0.99727373  0.21143400  0.00236079  1
  C  C2  1  0.50425816  0.78835262  0.50154585  1
  C  C3  1  0.00419956  0.71156144  0.99846977  1
  N  N4  1  0.59937090  0.23649744  0.59688048  1
  N  N5  1  0.39711884  0.23472442  0.39790257  1
  N  N6  1  0.09942999  0.26361835  0.90313849  1
  N  N7  1  0.89715098  0.26536276  0.10208894  1
  N  N8  1  0.60093079  0.73405484  0.60401601  1
  N  N9  1  0.40169644  0.73662162  0.40205834  1
  N  N10  1  0.10089001  0.76587621  0.89600156  1
  N  N11  1  0.90162626  0.76326611  0.09793851  1
  H  H12  1  0.49536710  0.38531902  0.49798200  1
  H  H13  1  0.67306436  0.28772855  0.66830372  1
  H  H14  1  0.60855513  0.14660598  0.60925503  1
  H  H15  1  0.32163006  0.28493185  0.32718771  1
  H  H16  1  0.39079343  0.14473448  0.38487243  1
  H  H17  1  0.99534637  0.11477955  0.00195725  1
  H  H18  1  0.17310702  0.21239158  0.83170791  1
  H  H19  1  0.10864141  0.35349709  0.89081976  1
  H  H20  1  0.82162927  0.21516671  0.17278265  1
  H  H21  1  0.89085887  0.35536255  0.11516449  1
  H  H22  1  0.50998320  0.88490254  0.49860164  1
  H  H23  1  0.67470121  0.78387764  0.67714567  1
  H  H24  1  0.60861503  0.64396077  0.61450641  1
  H  H25  1  0.33310282  0.78811171  0.32620474  1
  H  H26  1  0.38401364  0.64702658  0.39709464  1
  H  H27  1  0.00993626  0.61501190  0.00141135  1
  H  H28  1  0.17467040  0.71603888  0.82288519  1
  H  H29  1  0.10856474  0.85594923  0.88551745  1
  H  H30  1  0.83303078  0.71177935  0.17377838  1
  H  H31  1  0.88392441  0.85288458  0.10290627  1
  In  In32  1  0.49927073  0.99995782  0.99741164  1
  In  In33  1  0.99927928  0.50003561  0.50259302  1
  In  In34  1  0.99990167  0.00005869  0.49686236  1
  In  In35  1  0.49990714  0.49993196  0.00313077  1
  Br  Br36  1  0.49941500  0.23611560  0.99736660  1
  Br  Br37  1  0.23224933  0.98750798  0.20157043  1
  Br  Br38  1  0.70362983  0.01300523  0.26524506  1
  Br  Br39  1  0.99938611  0.26388186  0.50264409  1
  Br  Br40  1  0.29661997  0.01190295  0.72956926  1
  Br  Br41  1  0.76760864  0.98752381  0.79426639  1
  Br  Br42  1  0.50092758  0.76381416  0.00126002  1
  Br  Br43  1  0.73225327  0.51250052  0.29842708  1
  Br  Br44  1  0.20362862  0.48698928  0.23474536  1
  Br  Br45  1  0.00097227  0.73617598  0.49872813  1
  Br  Br46  1  0.26761553  0.51247813  0.70573830  1
  Br  Br47  1  0.79661263  0.48808993  0.77042786  1
