# generated using pymatgen
data_SnH5CBr3N2
_symmetry_space_group_name_H-M   'P 1'
_cell_length_a   8.24286979
_cell_length_b   11.45170242
_cell_length_c   8.23868627
_cell_angle_alpha   90.00570537
_cell_angle_beta   89.99862506
_cell_angle_gamma   90.00192989
_symmetry_Int_Tables_number   1
_chemical_formula_structural   SnH5CBr3N2
_chemical_formula_sum   'Sn4 H20 C4 Br12 N8'
_cell_volume   777.68989605
_cell_formula_units_Z   4
loop_
 _symmetry_equiv_pos_site_id
 _symmetry_equiv_pos_as_xyz
  1  'x, y, z'
loop_
 _atom_site_type_symbol
 _atom_site_label
 _atom_site_symmetry_multiplicity
 _atom_site_fract_x
 _atom_site_fract_y
 _atom_site_fract_z
 _atom_site_occupancy
  C  C0  1  0.49402536  0.28924184  0.49653844  1
  C  C1  1  0.99403554  0.21088076  0.00344444  1
  C  C2  1  0.50600256  0.78911862  0.50343595  1
  C  C3  1  0.00591406  0.71075922  0.99655437  1
  N  N4  1  0.59636002  0.23790783  0.59536230  1
  N  N5  1  0.39595299  0.23608836  0.39544425  1
  N  N6  1  0.09639945  0.26222791  0.90467245  1
  N  N7  1  0.89596688  0.26402505  0.10457781  1
  N  N8  1  0.60409009  0.73597967  0.60458954  1
  N  N9  1  0.40369489  0.73776372  0.40468001  1
  N  N10  1  0.10401947  0.76391118  0.89542756  1
  N  N11  1  0.90358306  0.76209474  0.09533355  1
  H  H12  1  0.48995477  0.38441253  0.49878661  1
  H  H13  1  0.66731068  0.28809714  0.66916559  1
  H  H14  1  0.60947027  0.14943156  0.60279418  1
  H  H15  1  0.32132647  0.28535496  0.32397424  1
  H  H16  1  0.38957754  0.14743441  0.38360263  1
  H  H17  1  0.98991144  0.11571541  0.00112719  1
  H  H18  1  0.16734805  0.21205465  0.83083237  1
  H  H19  1  0.10957223  0.35070516  0.89730138  1
  H  H20  1  0.82132055  0.21476148  0.17600073  1
  H  H21  1  0.88964464  0.35267569  0.11647454  1
  H  H22  1  0.51012048  0.88429153  0.50114876  1
  H  H23  1  0.67871053  0.78524828  0.67601746  1
  H  H24  1  0.61041622  0.64732415  0.61645756  1
  H  H25  1  0.33271974  0.78794230  0.33081048  1
  H  H26  1  0.39052558  0.64929374  0.39726622  1
  H  H27  1  0.01001686  0.61559192  0.99880539  1
  H  H28  1  0.17864176  0.71464615  0.82399509  1
  H  H29  1  0.11036010  0.85256222  0.88359103  1
  H  H30  1  0.83261355  0.71190350  0.16915367  1
  H  H31  1  0.89042873  0.85057087  0.10276556  1
  Sn  Sn32  1  0.49937099  0.99998240  0.99765022  1
  Sn  Sn33  1  0.99938712  0.50002702  0.50236534  1
  Sn  Sn34  1  0.00062311  0.00002600  0.49764231  1
  Sn  Sn35  1  0.50061353  0.49998216  0.00236625  1
  Br  Br36  1  0.49775150  0.24995088  0.99617058  1
  Br  Br37  1  0.21617450  0.98537071  0.21237832  1
  Br  Br38  1  0.71451081  0.01561725  0.28166569  1
  Br  Br39  1  0.99772452  0.25006084  0.50384746  1
  Br  Br40  1  0.28383041  0.01463459  0.71238214  1
  Br  Br41  1  0.78549829  0.98438506  0.78166986  1
  Br  Br42  1  0.50222025  0.74994530  0.00381524  1
  Br  Br43  1  0.71622198  0.51464535  0.28756895  1
  Br  Br44  1  0.21453598  0.48440545  0.21836052  1
  Br  Br45  1  0.00229803  0.75005505  0.49615601  1
  Br  Br46  1  0.28545441  0.51559442  0.71837072  1
  Br  Br47  1  0.78376935  0.48536393  0.78756377  1
