# generated using pymatgen
data_BaH5CBr3N2
_symmetry_space_group_name_H-M   'P 1'
_cell_length_a   8.48474540
_cell_length_b   12.54008666
_cell_length_c   8.41016431
_cell_angle_alpha   90.00021993
_cell_angle_beta   89.99397763
_cell_angle_gamma   89.99612194
_symmetry_Int_Tables_number   1
_chemical_formula_structural   BaH5CBr3N2
_chemical_formula_sum   'Ba4 H20 C4 Br12 N8'
_cell_volume   894.83678798
_cell_formula_units_Z   4
loop_
 _symmetry_equiv_pos_site_id
 _symmetry_equiv_pos_as_xyz
  1  'x, y, z'
loop_
 _atom_site_type_symbol
 _atom_site_label
 _atom_site_symmetry_multiplicity
 _atom_site_fract_x
 _atom_site_fract_y
 _atom_site_fract_z
 _atom_site_occupancy
  C  C0  1  0.50452000  0.31783787  0.51758919  1
  C  C1  1  0.00447292  0.18219926  0.98230248  1
  C  C2  1  0.49554621  0.81782692  0.48238884  1
  C  C3  1  0.99544406  0.68213165  0.01766037  1
  N  N4  1  0.63029309  0.27890738  0.58755198  1
  N  N5  1  0.44580213  0.28223600  0.38337083  1
  N  N6  1  0.13033284  0.22110417  0.91245041  1
  N  N7  1  0.94570977  0.21772119  0.11655757  1
  N  N8  1  0.55422153  0.78230598  0.61666379  1
  N  N9  1  0.36971750  0.77892418  0.41248853  1
  N  N10  1  0.05426960  0.71784242  0.88355353  1
  N  N11  1  0.86963620  0.72101867  0.08765543  1
  H  H12  1  0.44489791  0.38503575  0.57491050  1
  H  H13  1  0.67020169  0.31191113  0.69136574  1
  H  H14  1  0.69667745  0.21989031  0.53716639  1
  H  H15  1  0.35152551  0.32065960  0.33283868  1
  H  H16  1  0.49812990  0.22162630  0.32118034  1
  H  H17  1  0.94480846  0.11508047  0.92483821  1
  H  H18  1  0.17025257  0.18814524  0.80859856  1
  H  H19  1  0.19673639  0.28006219  0.96293849  1
  H  H20  1  0.85135966  0.17930999  0.16697751  1
  H  H21  1  0.99806285  0.27823391  0.17891154  1
  H  H22  1  0.55524302  0.88494358  0.42493946  1
  H  H23  1  0.64854570  0.82071494  0.66712181  1
  H  H24  1  0.50184099  0.72177778  0.67898022  1
  H  H25  1  0.32987791  0.81185862  0.30860460  1
  H  H26  1  0.30325668  0.71999385  0.46297619  1
  H  H27  1  0.05500837  0.61487332  0.07488492  1
  H  H28  1  0.14856329  0.67944906  0.83299398  1
  H  H29  1  0.00199429  0.77851124  0.82144562  1
  H  H30  1  0.82961145  0.68789472  0.19134691  1
  H  H31  1  0.80328870  0.78007547  0.03734166  1
  Ba  Ba32  1  0.48733472  0.00595154  0.97506071  1
  Ba  Ba33  1  0.98755371  0.49405851  0.52486096  1
  Ba  Ba34  1  0.01252475  0.99404386  0.47501557  1
  Ba  Ba35  1  0.51264240  0.50594314  0.02484117  1
  Br  Br36  1  0.51364715  0.25589699  0.98564155  1
  Br  Br37  1  0.16541419  0.95425427  0.14301741  1
  Br  Br38  1  0.68213943  0.05312298  0.30253648  1
  Br  Br39  1  0.01353743  0.24408812  0.51427241  1
  Br  Br40  1  0.33436741  0.04570096  0.64310971  1
  Br  Br41  1  0.81773985  0.94690929  0.80255232  1
  Br  Br42  1  0.48643493  0.75590987  0.01439831  1
  Br  Br43  1  0.66567779  0.54568609  0.35678024  1
  Br  Br44  1  0.18229861  0.44681208  0.19735958  1
  Br  Br45  1  0.98648452  0.74409819  0.48580459  1
  Br  Br46  1  0.31782545  0.55318875  0.69744600  1
  Br  Br47  1  0.83454837  0.45429518  0.85681348  1
