# generated using pymatgen
data_H5PtCBr3N2
_symmetry_space_group_name_H-M   'P 1'
_cell_length_a   9.96528874
_cell_length_b   7.64597945
_cell_length_c   9.27791787
_cell_angle_alpha   90.03328446
_cell_angle_beta   89.99836140
_cell_angle_gamma   90.00752436
_symmetry_Int_Tables_number   1
_chemical_formula_structural   H5PtCBr3N2
_chemical_formula_sum   'H20 Pt4 C4 Br12 N8'
_cell_volume   706.92519349
_cell_formula_units_Z   4
loop_
 _symmetry_equiv_pos_site_id
 _symmetry_equiv_pos_as_xyz
  1  'x, y, z'
loop_
 _atom_site_type_symbol
 _atom_site_label
 _atom_site_symmetry_multiplicity
 _atom_site_fract_x
 _atom_site_fract_y
 _atom_site_fract_z
 _atom_site_occupancy
  C  C0  1  0.50325875  0.25916307  0.50889958  1
  C  C1  1  0.00310447  0.24112305  0.99109709  1
  C  C2  1  0.49693428  0.75979363  0.49112595  1
  C  C3  1  0.99684103  0.74018521  0.00891900  1
  N  N4  1  0.63494354  0.25702011  0.50592271  1
  N  N5  1  0.42645657  0.23449227  0.39569368  1
  N  N6  1  0.13478708  0.24277312  0.99400324  1
  N  N7  1  0.92637731  0.26538325  0.10441395  1
  N  N8  1  0.57361790  0.73517487  0.60440668  1
  N  N9  1  0.36525635  0.75728699  0.49388471  1
  N  N10  1  0.07355022  0.76499592  0.89569312  1
  N  N11  1  0.86517244  0.74260038  0.00611719  1
  H  H12  1  0.45441046  0.28359967  0.61254367  1
  H  H13  1  0.68975211  0.28197423  0.59685113  1
  H  H14  1  0.68590881  0.23491565  0.41216696  1
  H  H15  1  0.32440831  0.23963942  0.40520028  1
  H  H16  1  0.46620515  0.21225684  0.29570111  1
  H  H17  1  0.95416929  0.21752045  0.88735949  1
  H  H18  1  0.18950862  0.21820801  0.90295774  1
  H  H19  1  0.18584876  0.26410371  0.08783168  1
  H  H20  1  0.82432504  0.26073154  0.09492653  1
  H  H21  1  0.96620167  0.28687082  0.20450106  1
  H  H22  1  0.54590058  0.78455528  0.38761163  1
  H  H23  1  0.67566929  0.74066106  0.59508605  1
  H  H24  1  0.53375924  0.71261917  0.70428887  1
  H  H25  1  0.31054321  0.78197464  0.40288529  1
  H  H26  1  0.31418391  0.73481731  0.58749868  1
  H  H27  1  0.04576487  0.71531734  0.11244332  1
  H  H28  1  0.17560938  0.75967167  0.90505649  1
  H  H29  1  0.03372681  0.78767917  0.79582311  1
  H  H30  1  0.81040408  0.71766903  0.09707111  1
  H  H31  1  0.81411594  0.76519410  0.91251563  1
  Pt  Pt32  1  0.50252317  0.00677437  0.99924593  1
  Pt  Pt33  1  0.00256504  0.49325199  0.50068308  1
  Pt  Pt34  1  0.99738926  0.99324533  0.49933073  1
  Pt  Pt35  1  0.49733371  0.50677588  0.00063070  1
  Br  Br36  1  0.61943550  0.25898815  0.89711887  1
  Br  Br37  1  0.14721912  0.99605084  0.29027561  1
  Br  Br38  1  0.66036681  0.00484450  0.20295666  1
  Br  Br39  1  0.11946475  0.24109718  0.60283300  1
  Br  Br40  1  0.35246237  0.00388778  0.79038201  1
  Br  Br41  1  0.83987152  0.99515718  0.70334181  1
  Br  Br42  1  0.38043083  0.75908067  0.10276805  1
  Br  Br43  1  0.64710668  0.50386731  0.20971953  1
  Br  Br44  1  0.16040427  0.49504856  0.29696482  1
  Br  Br45  1  0.88047984  0.74090787  0.39717170  1
  Br  Br46  1  0.33978456  0.50490107  0.79665772  1
  Br  Br47  1  0.85246641  0.49621332  0.70952783  1
