# generated using pymatgen
data_H5AuCBr3N2
_symmetry_space_group_name_H-M   'P 1'
_cell_length_a   7.66809336
_cell_length_b   10.97034791
_cell_length_c   8.58968002
_cell_angle_alpha   90.20964175
_cell_angle_beta   90.00007082
_cell_angle_gamma   90.00019781
_symmetry_Int_Tables_number   1
_chemical_formula_structural   H5AuCBr3N2
_chemical_formula_sum   'H20 Au4 C4 Br12 N8'
_cell_volume   722.57323574
_cell_formula_units_Z   4
loop_
 _symmetry_equiv_pos_site_id
 _symmetry_equiv_pos_as_xyz
  1  'x, y, z'
loop_
 _atom_site_type_symbol
 _atom_site_label
 _atom_site_symmetry_multiplicity
 _atom_site_fract_x
 _atom_site_fract_y
 _atom_site_fract_z
 _atom_site_occupancy
  C  C0  1  0.49764740  0.28542607  0.49774897  1
  C  C1  1  0.99739810  0.21462497  0.00229432  1
  C  C2  1  0.50372707  0.78808060  0.50321579  1
  C  C3  1  0.00378914  0.71186388  0.99677292  1
  N  N4  1  0.58237133  0.23215659  0.61107769  1
  N  N5  1  0.41481102  0.22991595  0.38456234  1
  N  N6  1  0.08217723  0.26785599  0.88898642  1
  N  N7  1  0.91461782  0.27018199  0.11549872  1
  N  N8  1  0.58497602  0.73203774  0.61637390  1
  N  N9  1  0.41728098  0.73548214  0.38990675  1
  N  N10  1  0.08503065  0.76790029  0.88357646  1
  N  N11  1  0.91734916  0.76446391  0.11005716  1
  H  H12  1  0.49580433  0.38478639  0.49756814  1
  H  H13  1  0.64606085  0.28501852  0.69116077  1
  H  H14  1  0.59297287  0.13991219  0.62246711  1
  H  H15  1  0.34980100  0.28131713  0.30430667  1
  H  H16  1  0.40732478  0.13747060  0.37304853  1
  H  H17  1  0.99541002  0.11526941  0.00246435  1
  H  H18  1  0.14582391  0.21496751  0.80889729  1
  H  H19  1  0.09290687  0.36008546  0.87761999  1
  H  H20  1  0.84956106  0.21881192  0.19574961  1
  H  H21  1  0.90725209  0.36264022  0.12702618  1
  H  H22  1  0.50871229  0.88734047  0.50338308  1
  H  H23  1  0.65094906  0.78301687  0.69703905  1
  H  H24  1  0.58994640  0.63949609  0.62689054  1
  H  H25  1  0.35543910  0.78873594  0.30945271  1
  H  H26  1  0.40371730  0.64327240  0.37938831  1
  H  H27  1  0.00880803  0.61260190  0.99662466  1
  H  H28  1  0.15101107  0.71691090  0.80293246  1
  H  H29  1  0.08997549  0.86044549  0.87304293  1
  H  H30  1  0.85551507  0.71121132  0.19052254  1
  H  H31  1  0.90375563  0.85666330  0.12055516  1
  Au  Au32  1  0.49972411  0.97927855  0.99835331  1
  Au  Au33  1  0.99974140  0.52073270  0.50163815  1
  Au  Au34  1  0.00011785  0.02229569  0.49853684  1
  Au  Au35  1  0.50009566  0.47772211  0.00144220  1
  Br  Br36  1  0.49920904  0.24822116  0.99866146  1
  Br  Br37  1  0.25503322  0.97756337  0.18091352  1
  Br  Br38  1  0.75477217  0.02126690  0.30737607  1
  Br  Br39  1  0.99933587  0.25179228  0.50127697  1
  Br  Br40  1  0.24577786  0.02171532  0.68920779  1
  Br  Br41  1  0.74453694  0.97855212  0.81575538  1
  Br  Br42  1  0.49980886  0.70747101  0.00271568  1
  Br  Br43  1  0.75504407  0.52249532  0.31908074  1
  Br  Br44  1  0.25476705  0.47873346  0.19261525  1
  Br  Br45  1  0.99979062  0.79255022  0.49729672  1
  Br  Br46  1  0.24456224  0.52139212  0.68422322  1
  Br  Br47  1  0.74577924  0.47831647  0.81079996  1
