# generated using pymatgen
data_HgH5CBr3N2
_symmetry_space_group_name_H-M   'P 1'
_cell_length_a   6.96559515
_cell_length_b   13.26047578
_cell_length_c   8.52657881
_cell_angle_alpha   90.01053802
_cell_angle_beta   89.99857405
_cell_angle_gamma   89.99435619
_symmetry_Int_Tables_number   1
_chemical_formula_structural   HgH5CBr3N2
_chemical_formula_sum   'Hg4 H20 C4 Br12 N8'
_cell_volume   787.57538953
_cell_formula_units_Z   4
loop_
 _symmetry_equiv_pos_site_id
 _symmetry_equiv_pos_as_xyz
  1  'x, y, z'
loop_
 _atom_site_type_symbol
 _atom_site_label
 _atom_site_symmetry_multiplicity
 _atom_site_fract_x
 _atom_site_fract_y
 _atom_site_fract_z
 _atom_site_occupancy
  C  C0  1  0.47166867  0.33394187  0.48082978  1
  C  C1  1  0.97168520  0.16606646  0.01913844  1
  C  C2  1  0.52845600  0.83395112  0.51908702  1
  C  C3  1  0.02822227  0.66601144  0.98095371  1
  N  N4  1  0.52648560  0.32790752  0.62766505  1
  N  N5  1  0.52311540  0.27161050  0.36926770  1
  N  N6  1  0.02650071  0.17213267  0.87230557  1
  N  N7  1  0.02308034  0.22838054  0.13072722  1
  N  N8  1  0.47707918  0.77165217  0.63068718  1
  N  N9  1  0.47345053  0.82791927  0.37230477  1
  N  N10  1  0.97692063  0.72826217  0.86926913  1
  N  N11  1  0.97321028  0.67215297  0.12773033  1
  H  H12  1  0.37734795  0.39627054  0.44928983  1
  H  H13  1  0.48350266  0.38280104  0.70361292  1
  H  H14  1  0.62334564  0.27634727  0.66742860  1
  H  H15  1  0.47397031  0.28145985  0.25727654  1
  H  H16  1  0.61064644  0.21075065  0.38864575  1
  H  H17  1  0.87740763  0.10372285  0.05065700  1
  H  H18  1  0.98357041  0.11725146  0.79633258  1
  H  H19  1  0.12333067  0.22371048  0.83256172  1
  H  H20  1  0.97394117  0.21850322  0.24271247  1
  H  H21  1  0.11057185  0.28925294  0.11137503  1
  H  H22  1  0.62289013  0.89624454  0.55054684  1
  H  H23  1  0.52635746  0.78150609  0.74264142  1
  H  H24  1  0.38945236  0.71082704  0.61137548  1
  H  H25  1  0.51632395  0.88279930  0.29632448  1
  H  H26  1  0.37639675  0.77642033  0.33265629  1
  H  H27  1  0.12258377  0.60365766  0.94958393  1
  H  H28  1  0.02625333  0.71833420  0.75734290  1
  H  H29  1  0.88940381  0.78915330  0.88849920  1
  H  H30  1  0.01602302  0.61731233  0.20380272  1
  H  H31  1  0.87622348  0.72372031  0.16730421  1
  Hg  Hg32  1  0.45451242  0.02739750  0.95412170  1
  Hg  Hg33  1  0.95442846  0.47261000  0.54588938  1
  Hg  Hg34  1  0.04566573  0.97264524  0.45425684  1
  Hg  Hg35  1  0.54547813  0.52735740  0.04575030  1
  Br  Br36  1  0.49406265  0.22325266  0.97996580  1
  Br  Br37  1  0.18577620  0.94055141  0.10696889  1
  Br  Br38  1  0.73390153  0.04327887  0.32393216  1
  Br  Br39  1  0.99407265  0.27675519  0.52001541  1
  Br  Br40  1  0.31447550  0.05951377  0.60700899  1
  Br  Br41  1  0.76634419  0.95666738  0.82394894  1
  Br  Br42  1  0.50582334  0.72320770  0.01996001  1
  Br  Br43  1  0.68567836  0.55948306  0.39307815  1
  Br  Br44  1  0.23375700  0.45672825  0.17611474  1
  Br  Br45  1  0.00606623  0.77678849  0.48002052  1
  Br  Br46  1  0.26621154  0.54331885  0.67610807  1
  Br  Br47  1  0.81434785  0.44047311  0.89302905  1
