# generated using pymatgen
data_H5PbCBr3N2
_symmetry_space_group_name_H-M   'P 1'
_cell_length_a   8.29355687
_cell_length_b   11.67927494
_cell_length_c   8.28292866
_cell_angle_alpha   89.99963101
_cell_angle_beta   89.99996047
_cell_angle_gamma   89.99829277
_symmetry_Int_Tables_number   1
_chemical_formula_structural   H5PbCBr3N2
_chemical_formula_sum   'H20 Pb4 C4 Br12 N8'
_cell_volume   802.30708940
_cell_formula_units_Z   4
loop_
 _symmetry_equiv_pos_site_id
 _symmetry_equiv_pos_as_xyz
  1  'x, y, z'
loop_
 _atom_site_type_symbol
 _atom_site_label
 _atom_site_symmetry_multiplicity
 _atom_site_fract_x
 _atom_site_fract_y
 _atom_site_fract_z
 _atom_site_occupancy
  C  C0  1  0.49297196  0.29088991  0.49635025  1
  C  C1  1  0.99303457  0.20909392  0.00367331  1
  C  C2  1  0.50703174  0.79088852  0.50364703  1
  C  C3  1  0.00696099  0.70912108  0.99631922  1
  N  N4  1  0.59470598  0.23955725  0.59366757  1
  N  N5  1  0.39506518  0.23939896  0.39541767  1
  N  N6  1  0.09480880  0.26043042  0.90639902  1
  N  N7  1  0.89510296  0.26058726  0.10458741  1
  N  N8  1  0.60493539  0.73941504  0.60457935  1
  N  N9  1  0.40530070  0.73956554  0.40633529  1
  N  N10  1  0.10489053  0.76059930  0.89542562  1
  N  N11  1  0.90519274  0.76043268  0.09360466  1
  H  H12  1  0.48925916  0.38420870  0.49997727  1
  H  H13  1  0.66607946  0.28737301  0.66790489  1
  H  H14  1  0.60650081  0.15274540  0.59827273  1
  H  H15  1  0.32047043  0.28764629  0.32470290  1
  H  H16  1  0.38960989  0.15255526  0.38362935  1
  H  H17  1  0.98931165  0.11577891  1.00002270  1
  H  H18  1  0.16620594  0.21261170  0.83218332  1
  H  H19  1  0.10663321  0.34723828  0.90183764  1
  H  H20  1  0.82047937  0.21233795  0.17526677  1
  H  H21  1  0.88965361  0.34742821  0.11639073  1
  H  H22  1  0.51073981  0.88421601  0.50000678  1
  H  H23  1  0.67953304  0.78765773  0.67529199  1
  H  H24  1  0.61040026  0.65256267  0.61638315  1
  H  H25  1  0.33392446  0.78737244  0.33208976  1
  H  H26  1  0.39350820  0.65274564  0.40173995  1
  H  H27  1  0.01067535  0.61579119  0.99994747  1
  H  H28  1  0.17951733  0.71236604  0.82472977  1
  H  H29  1  0.11035156  0.84745543  0.88363949  1
  H  H30  1  0.83378814  0.71262206  0.16781107  1
  H  H31  1  0.89337079  0.84725435  0.09819297  1
  Pb  Pb32  1  0.49965112  0.99991872  0.99841999  1
  Pb  Pb33  1  0.99965285  0.50010377  0.50160136  1
  Pb  Pb34  1  0.00035618  0.00010410  0.49841495  1
  Pb  Pb35  1  0.50035084  0.49991779  0.00159736  1
  Br  Br36  1  0.49759708  0.24996870  0.99320252  1
  Br  Br37  1  0.20418886  0.98309472  0.20228644  1
  Br  Br38  1  0.70144569  0.02270523  0.29674711  1
  Br  Br39  1  0.99756418  0.25005290  0.50685671  1
  Br  Br40  1  0.29583343  0.01689644  0.70228491  1
  Br  Br41  1  0.79855977  0.97732085  0.79674268  1
  Br  Br42  1  0.50239747  0.74996871  0.00679155  1
  Br  Br43  1  0.70416529  0.51689134  0.29773877  1
  Br  Br44  1  0.20142076  0.47731328  0.20325095  1
  Br  Br45  1  0.00243480  0.75005309  0.49315116  1
  Br  Br46  1  0.29857024  0.52270864  0.70325871  1
  Br  Br47  1  0.79581674  0.48309755  0.79773244  1
