# generated using pymatgen
data_BeH10PbC2(Br3N2)2
_symmetry_space_group_name_H-M   'P 1'
_cell_length_a   8.79985329
_cell_length_b   9.87487469
_cell_length_c   8.41929438
_cell_angle_alpha   88.47011429
_cell_angle_beta   90.00003747
_cell_angle_gamma   90.00065358
_symmetry_Int_Tables_number   1
_chemical_formula_structural   BeH10PbC2(Br3N2)2
_chemical_formula_sum   'Be2 H20 Pb2 C4 Br12 N8'
_cell_volume   731.35440461
_cell_formula_units_Z   2
loop_
 _symmetry_equiv_pos_site_id
 _symmetry_equiv_pos_as_xyz
  1  'x, y, z'
loop_
 _atom_site_type_symbol
 _atom_site_label
 _atom_site_symmetry_multiplicity
 _atom_site_fract_x
 _atom_site_fract_y
 _atom_site_fract_z
 _atom_site_occupancy
  C  C0  1  0.49272120  0.28637728  0.49967043  1
  C  C1  1  0.99274937  0.21362445  0.00033764  1
  C  C2  1  0.50017189  0.80213469  0.49738353  1
  C  C3  1  0.00015367  0.69786626  0.00262347  1
  N  N4  1  0.59452160  0.22961568  0.59326085  1
  N  N5  1  0.40540954  0.22570268  0.39725169  1
  N  N6  1  0.09456106  0.27039101  0.90676270  1
  N  N7  1  0.90542896  0.27429348  0.10275086  1
  N  N8  1  0.59311976  0.74489853  0.60023243  1
  N  N9  1  0.40243668  0.74033119  0.40681490  1
  N  N10  1  0.09309230  0.75510674  0.89976672  1
  N  N11  1  0.90240180  0.75966321  0.09317610  1
  H  H12  1  0.47691224  0.39512193  0.50945697  1
  H  H13  1  0.65705532  0.28958794  0.66626117  1
  H  H14  1  0.61917997  0.12870790  0.59713303  1
  H  H15  1  0.33307314  0.28456432  0.32896070  1
  H  H16  1  0.41464698  0.12633157  0.36980080  1
  H  H17  1  0.97694000  0.10488033  0.99054159  1
  H  H18  1  0.15709776  0.21042261  0.83376240  1
  H  H19  1  0.11922316  0.37129866  0.90290282  1
  H  H20  1  0.83308279  0.21542908  0.17102983  1
  H  H21  1  0.91466624  0.37366298  0.13020964  1
  H  H22  1  0.50570654  0.91186132  0.48506001  1
  H  H23  1  0.66404222  0.80448829  0.66559760  1
  H  H24  1  0.60000010  0.64264622  0.61936183  1
  H  H25  1  0.33982108  0.79619249  0.32613045  1
  H  H26  1  0.38533934  0.63817338  0.40936189  1
  H  H27  1  0.00571577  0.58814195  0.01497071  1
  H  H28  1  0.16402832  0.69552266  0.83441205  1
  H  H29  1  0.09994668  0.85735828  0.88061686  1
  H  H30  1  0.83979699  0.70380017  0.17386965  1
  H  H31  1  0.88527667  0.86181739  0.09060387  1
  Be  Be32  1  0.39285624  -0.00006365  0.98321352  1
  Be  Be33  1  0.89286247  0.50006536  0.51679172  1
  Pb  Pb34  1  0.99979683  0.99977070  0.49906004  1
  Pb  Pb35  1  0.49980461  0.50024610  1.00093519  1
  Br  Br36  1  0.52488164  0.18748106  0.00347912  1
  Br  Br37  1  0.22304347  0.98645908  0.17763225  1
  Br  Br38  1  0.74597688  0.01385496  0.30242369  1
  Br  Br39  1  0.02489430  0.31252672  0.49653107  1
  Br  Br40  1  0.29083417  0.01394314  0.74215001  1
  Br  Br41  1  0.81288363  0.98366569  0.76477199  1
  Br  Br42  1  0.52555524  0.81250183  0.00545388  1
  Br  Br43  1  0.72304312  0.51352230  0.32237679  1
  Br  Br44  1  0.24598892  0.48615683  0.19758180  1
  Br  Br45  1  0.02555164  0.68750670  0.49454045  1
  Br  Br46  1  0.31288559  0.51635906  0.73523241  1
  Br  Br47  1  0.79084143  0.48605239  0.75785563  1
