# generated using pymatgen
data_BeHgH10C2(Br3N2)2
_symmetry_space_group_name_H-M   'P 1'
_cell_length_a   6.77133457
_cell_length_b   13.53621242
_cell_length_c   8.24811419
_cell_angle_alpha   89.49541710
_cell_angle_beta   89.98137531
_cell_angle_gamma   89.97174797
_symmetry_Int_Tables_number   1
_chemical_formula_structural   BeHgH10C2(Br3N2)2
_chemical_formula_sum   'Be2 Hg2 H20 C4 Br12 N8'
_cell_volume   755.97804325
_cell_formula_units_Z   2
loop_
 _symmetry_equiv_pos_site_id
 _symmetry_equiv_pos_as_xyz
  1  'x, y, z'
loop_
 _atom_site_type_symbol
 _atom_site_label
 _atom_site_symmetry_multiplicity
 _atom_site_fract_x
 _atom_site_fract_y
 _atom_site_fract_z
 _atom_site_occupancy
  C  C0  1  0.45783694  0.32891965  0.47850860  1
  C  C1  1  0.95716312  0.17115362  0.02148077  1
  C  C2  1  0.53829812  0.83140922  0.52297718  1
  C  C3  1  0.03791396  0.66848816  0.97710343  1
  N  N4  1  0.49010664  0.32077628  0.63450107  1
  N  N5  1  0.49441932  0.26069055  0.37078151  1
  N  N6  1  0.98940233  0.17899675  0.86542662  1
  N  N7  1  0.99495032  0.23930528  0.12901303  1
  N  N8  1  0.50416761  0.75834936  0.62434876  1
  N  N9  1  0.50178739  0.83016464  0.36700580  1
  N  N10  1  0.00496155  0.74162774  0.87560527  1
  N  N11  1  0.00167634  0.67007642  0.13311401  1
  H  H12  1  0.39698567  0.39883252  0.43504593  1
  H  H13  1  0.45478075  0.37963583  0.70473675  1
  H  H14  1  0.54343929  0.25924284  0.69194843  1
  H  H15  1  0.46056951  0.27315618  0.25181147  1
  H  H16  1  0.55547742  0.19356197  0.39971398  1
  H  H17  1  0.89520382  0.10156436  0.06517823  1
  H  H18  1  0.95280890  0.12023229  0.79544770  1
  H  H19  1  0.04375227  0.24020975  0.80774961  1
  H  H20  1  0.96106633  0.22709618  0.24806293  1
  H  H21  1  0.05704010  0.30614524  0.09989130  1
  H  H22  1  0.59837084  0.89945786  0.57306945  1
  H  H23  1  0.53439989  0.76601658  0.74545026  1
  H  H24  1  0.44660315  0.69219832  0.58861316  1
  H  H25  1  0.53237175  0.89145572  0.29843920  1
  H  H26  1  0.44645394  0.77031741  0.30780062  1
  H  H27  1  0.09669886  0.60009426  0.92710902  1
  H  H28  1  0.03487700  0.73369993  0.75449268  1
  H  H29  1  0.94886225  0.80812748  0.91130858  1
  H  H30  1  0.03111486  0.60870571  0.20184856  1
  H  H31  1  0.94740226  0.73024247  0.19221501  1
  Be  Be32  1  0.45127117  0.03672315  0.91674708  1
  Be  Be33  1  0.95185884  0.46325725  0.58310957  1
  Hg  Hg34  1  0.04466686  0.97019147  0.49073248  1
  Hg  Hg35  1  0.54438967  0.52990007  0.00932010  1
  Br  Br36  1  0.48434409  0.18956626  0.97581647  1
  Br  Br37  1  0.24822708  0.95632845  0.06119213  1
  Br  Br38  1  0.74782825  0.04929884  0.34327592  1
  Br  Br39  1  0.98508732  0.31041612  0.52414285  1
  Br  Br40  1  0.32019644  0.06531125  0.63546825  1
  Br  Br41  1  0.72657642  0.96264992  0.85768635  1
  Br  Br42  1  0.52047658  0.71866854  0.02121516  1
  Br  Br43  1  0.74877421  0.54372382  0.43881304  1
  Br  Br44  1  0.24780309  0.45069447  0.15691321  1
  Br  Br45  1  0.02059858  0.78141952  0.47878451  1
  Br  Br46  1  0.22683744  0.53733700  0.64248274  1
  Br  Br47  1  0.82012076  0.43462629  0.86460598  1
