# generated using pymatgen
data_BeH10PtC2(Br3N2)2
_symmetry_space_group_name_H-M   'P 1'
_cell_length_a   7.15797622
_cell_length_b   11.18387222
_cell_length_c   8.58466752
_cell_angle_alpha   89.91525118
_cell_angle_beta   90.06121576
_cell_angle_gamma   89.91092253
_symmetry_Int_Tables_number   1
_chemical_formula_structural   BeH10PtC2(Br3N2)2
_chemical_formula_sum   'Be2 H20 Pt2 C4 Br12 N8'
_cell_volume   687.23406467
_cell_formula_units_Z   2
loop_
 _symmetry_equiv_pos_site_id
 _symmetry_equiv_pos_as_xyz
  1  'x, y, z'
loop_
 _atom_site_type_symbol
 _atom_site_label
 _atom_site_symmetry_multiplicity
 _atom_site_fract_x
 _atom_site_fract_y
 _atom_site_fract_z
 _atom_site_occupancy
  C  C0  1  0.48109566  0.29483695  0.47094540  1
  C  C1  1  0.98022599  0.20463279  0.02899383  1
  C  C2  1  0.54232942  0.79301614  0.53654414  1
  C  C3  1  0.04122184  0.70692279  0.96311200  1
  N  N4  1  0.52328834  0.27030964  0.61594221  1
  N  N5  1  0.39828040  0.22074729  0.37514413  1
  N  N6  1  0.02318464  0.22841229  0.88405052  1
  N  N7  1  0.90077695  0.28017685  0.12490606  1
  N  N8  1  0.57316510  0.72040414  0.65390743  1
  N  N9  1  0.47540002  0.76082533  0.40082521  1
  N  N10  1  0.07490150  0.77902859  0.84590077  1
  N  N11  1  0.97537202  0.74009051  0.09872384  1
  H  H12  1  0.51855489  0.38289692  0.42577883  1
  H  H13  1  0.58706590  0.33381159  0.68358360  1
  H  H14  1  0.49086617  0.18984784  0.66530908  1
  H  H15  1  0.37522961  0.24537903  0.26207572  1
  H  H16  1  0.35774707  0.13690247  0.40819306  1
  H  H17  1  0.01406256  0.11588026  0.07403519  1
  H  H18  1  0.08491043  0.16394890  0.81656693  1
  H  H19  1  0.99446523  0.30952137  0.83472835  1
  H  H20  1  0.87640206  0.25572388  0.23778795  1
  H  H21  1  0.86321467  0.36466668  0.09189518  1
  H  H22  1  0.57375831  0.88735769  0.55368603  1
  H  H23  1  0.61829640  0.75271928  0.75840743  1
  H  H24  1  0.54770816  0.63081589  0.64794892  1
  H  H25  1  0.45062893  0.82358389  0.31654878  1
  H  H26  1  0.43948065  0.67505359  0.37451468  1
  H  H27  1  0.06895537  0.61206497  0.94582549  1
  H  H28  1  0.11913064  0.74588697  0.74161197  1
  H  H29  1  0.05366300  0.86909467  0.85195232  1
  H  H30  1  0.94826819  0.67766429  0.18281633  1
  H  H31  1  0.94266621  0.82641663  0.12510381  1
  Be  Be32  1  0.56677003  0.05301405  0.05633069  1
  Be  Be33  1  0.06733454  0.44711480  0.44393559  1
  Pt  Pt34  1  0.00326481  0.03535910  0.46757780  1
  Pt  Pt35  1  0.50363924  0.46479447  0.03263998  1
  Br  Br36  1  0.46194897  0.24375895  0.99606714  1
  Br  Br37  1  0.31168488  0.97058520  0.12345161  1
  Br  Br38  1  0.72179656  0.02284758  0.29451914  1
  Br  Br39  1  0.96215510  0.25656205  0.50425401  1
  Br  Br40  1  0.25129733  0.02488440  0.66230985  1
  Br  Br41  1  0.71573629  0.98725225  0.86343146  1
  Br  Br42  1  0.50940310  0.68119757  0.03720323  1
  Br  Br43  1  0.81235261  0.52999376  0.37627684  1
  Br  Br44  1  0.22360556  0.47903284  0.20691223  1
  Br  Br45  1  0.00848563  0.81894148  0.46254119  1
  Br  Br46  1  0.21566831  0.51186258  0.63794312  1
  Br  Br47  1  0.75056004  0.47422177  0.83734568  1
