# generated using pymatgen
data_AlGaH12C2(I3N)2
_symmetry_space_group_name_H-M   'P 1'
_cell_length_a   8.35918307
_cell_length_b   11.93131910
_cell_length_c   8.22477666
_cell_angle_alpha   87.31961314
_cell_angle_beta   89.99748291
_cell_angle_gamma   90.03057285
_symmetry_Int_Tables_number   1
_chemical_formula_structural   AlGaH12C2(I3N)2
_chemical_formula_sum   'Al2 Ga2 H24 C4 I12 N4'
_cell_volume   819.40940645
_cell_formula_units_Z   2
loop_
 _symmetry_equiv_pos_site_id
 _symmetry_equiv_pos_as_xyz
  1  'x, y, z'
loop_
 _atom_site_type_symbol
 _atom_site_label
 _atom_site_symmetry_multiplicity
 _atom_site_fract_x
 _atom_site_fract_y
 _atom_site_fract_z
 _atom_site_occupancy
  C  C0  1  0.40277998  0.24826754  0.41620787  1
  C  C1  1  0.90364562  0.25177469  0.08444777  1
  C  C2  1  0.59721569  0.75173616  0.58380550  1
  C  C3  1  0.09636072  0.74822787  0.91556390  1
  N  N4  1  0.54576600  0.24692572  0.52262809  1
  N  N5  1  0.04614085  0.25308344  0.97734208  1
  N  N6  1  0.45422928  0.75307884  0.47738582  1
  N  N7  1  0.95386533  0.74691633  0.02266948  1
  H  H8  1  0.44212176  0.25129757  0.28914999  1
  H  H9  1  0.33348443  0.17190736  0.44281076  1
  H  H10  1  0.33158903  0.32242690  0.44018490  1
  H  H11  1  0.61639842  0.17779797  0.50015867  1
  H  H12  1  0.61466528  0.31853072  0.49844940  1
  H  H13  1  0.51596548  0.24333301  0.64617740  1
  H  H14  1  0.94356126  0.24878166  0.21130027  1
  H  H15  1  0.83220074  0.17759949  0.06087697  1
  H  H16  1  0.83436063  0.32813417  0.05815385  1
  H  H17  1  0.11499157  0.18146851  0.00125387  1
  H  H18  1  0.11702741  0.32220774  0.99947169  1
  H  H19  1  0.01582469  0.25666308  0.85394983  1
  H  H20  1  0.55787510  0.74870754  0.71086337  1
  H  H21  1  0.66840559  0.67757612  0.55982871  1
  H  H22  1  0.66651250  0.82809578  0.55720079  1
  H  H23  1  0.38359769  0.82220669  0.49985526  1
  H  H24  1  0.38532901  0.68147374  0.50156544  1
  H  H25  1  0.48402919  0.75667059  0.35383686  1
  H  H26  1  0.05644521  0.75122203  0.78871121  1
  H  H27  1  0.16780403  0.82240347  0.93913658  1
  H  H28  1  0.16564733  0.67186885  0.94185587  1
  H  H29  1  0.88501229  0.81853006  0.99875829  1
  H  H30  1  0.88298143  0.67779080  0.00053866  1
  H  H31  1  0.98418115  0.74333659  0.14606172  1
  Al  Al32  1  0.50000134  0.00000218  0.00000742  1
  Al  Al33  1  0.99999899  0.50000291  0.49999926  1
  Ga  Ga34  1  0.99999884  0.00000545  0.50000763  1
  Ga  Ga35  1  0.50000869  0.50000477  0.99999331  1
  I  I36  1  0.48032337  0.23376343  0.95009228  1
  I  I37  1  0.21094221  0.00222908  0.17218982  1
  I  I38  1  0.67023458  0.01385996  0.29320435  1
  I  I39  1  0.97971834  0.26626761  0.55019066  1
  I  I40  1  0.32976725  0.98614493  0.70681246  1
  I  I41  1  0.78906149  0.99777251  0.82782711  1
  I  I42  1  0.51968131  0.76624073  0.04992406  1
  I  I43  1  0.71112947  0.49773438  0.32747965  1
  I  I44  1  0.17055062  0.48618478  0.20695527  1
  I  I45  1  0.02027701  0.73373679  0.44982265  1
  I  I46  1  0.28886626  0.50226860  0.67253274  1
  I  I47  1  0.82944926  0.51381916  0.79305705  1
