# generated using pymatgen
data_HfBeH10C2(Br3N2)2
_symmetry_space_group_name_H-M   'P 1'
_cell_length_a   8.12592520
_cell_length_b   11.34828873
_cell_length_c   8.11371617
_cell_angle_alpha   90.27192248
_cell_angle_beta   90.00011725
_cell_angle_gamma   89.99512434
_symmetry_Int_Tables_number   1
_chemical_formula_structural   HfBeH10C2(Br3N2)2
_chemical_formula_sum   'Hf2 Be2 H20 C4 Br12 N8'
_cell_volume   748.20070972
_cell_formula_units_Z   2
loop_
 _symmetry_equiv_pos_site_id
 _symmetry_equiv_pos_as_xyz
  1  'x, y, z'
loop_
 _atom_site_type_symbol
 _atom_site_label
 _atom_site_symmetry_multiplicity
 _atom_site_fract_x
 _atom_site_fract_y
 _atom_site_fract_z
 _atom_site_occupancy
  C  C0  1  0.49351290  0.29051719  0.49648223  1
  C  C1  1  0.99357004  0.20947137  0.00353169  1
  C  C2  1  0.50616557  0.79047300  0.50413042  1
  C  C3  1  0.00610643  0.70953730  0.99584278  1
  N  N4  1  0.59634361  0.23833569  0.59700329  1
  N  N5  1  0.39461997  0.23776221  0.39206498  1
  N  N6  1  0.09643591  0.26164855  0.90305759  1
  N  N7  1  0.89465617  0.26222804  0.10794201  1
  N  N8  1  0.60721422  0.73783838  0.60584480  1
  N  N9  1  0.40094294  0.73818287  0.40549425  1
  N  N10  1  0.10717181  0.76217549  0.89416293  1
  N  N11  1  0.90085191  0.76182265  0.09446329  1
  H  H12  1  0.48953196  0.38645469  0.50029887  1
  H  H13  1  0.66809408  0.28899658  0.67239814  1
  H  H14  1  0.61085082  0.14919204  0.60296511  1
  H  H15  1  0.31971340  0.28837208  0.32034606  1
  H  H16  1  0.38657304  0.14848655  0.37860128  1
  H  H17  1  0.98957459  0.11353501  0.99968175  1
  H  H18  1  0.16820488  0.21098473  0.82767194  1
  H  H19  1  0.11096807  0.35078994  0.89714094  1
  H  H20  1  0.81972589  0.21162114  0.17962804  1
  H  H21  1  0.88661660  0.35150339  0.12142871  1
  H  H22  1  0.51028714  0.88639659  0.50099150  1
  H  H23  1  0.68320473  0.78862988  0.67692150  1
  H  H24  1  0.61410799  0.64863375  0.61952847  1
  H  H25  1  0.32902363  0.78862694  0.33071648  1
  H  H26  1  0.38781693  0.64896867  0.39720928  1
  H  H27  1  0.01023779  0.61361258  0.99896630  1
  H  H28  1  0.18318559  0.71138829  0.82309216  1
  H  H29  1  0.11405409  0.85138139  0.88049412  1
  H  H30  1  0.82891264  0.71137387  0.16920444  1
  H  H31  1  0.88769271  0.85103646  0.10274513  1
  Be  Be32  1  0.50059586  0.99993541  0.99866577  1
  Be  Be33  1  0.00059698  0.50008630  0.50135295  1
  Hf  Hf34  1  0.00136241  0.00003350  0.49857499  1
  Hf  Hf35  1  0.50135508  0.49997871  0.00142689  1
  Br  Br36  1  0.49751991  0.27236794  0.99521370  1
  Br  Br37  1  0.18805833  0.98832495  0.23261460  1
  Br  Br38  1  0.73504602  0.01341839  0.31071200  1
  Br  Br39  1  0.99747687  0.22764125  0.50483945  1
  Br  Br40  1  0.26603464  0.01304275  0.68673204  1
  Br  Br41  1  0.81255016  0.98517108  0.76417144  1
  Br  Br42  1  0.50087820  0.72764608  0.00524108  1
  Br  Br43  1  0.68804075  0.51168383  0.26739331  1
  Br  Br44  1  0.23503382  0.48661098  0.18928311  1
  Br  Br45  1  0.00092467  0.77236786  0.49472768  1
  Br  Br46  1  0.31255147  0.51483702  0.73582928  1
  Br  Br47  1  0.76602613  0.48693963  0.81327600  1
