# generated using pymatgen
data_BaBeH10C2(Br3N2)2
_symmetry_space_group_name_H-M   'P 1'
_cell_length_a   8.79886643
_cell_length_b   9.90815501
_cell_length_c   8.70920659
_cell_angle_alpha   88.74757552
_cell_angle_beta   89.99841044
_cell_angle_gamma   90.00087599
_symmetry_Int_Tables_number   1
_chemical_formula_structural   BaBeH10C2(Br3N2)2
_chemical_formula_sum   'Ba2 Be2 H20 C4 Br12 N8'
_cell_volume   759.09187956
_cell_formula_units_Z   2
loop_
 _symmetry_equiv_pos_site_id
 _symmetry_equiv_pos_as_xyz
  1  'x, y, z'
loop_
 _atom_site_type_symbol
 _atom_site_label
 _atom_site_symmetry_multiplicity
 _atom_site_fract_x
 _atom_site_fract_y
 _atom_site_fract_z
 _atom_site_occupancy
  C  C0  1  0.47845984  0.26330589  0.51096232  1
  C  C1  1  0.97846109  0.23668561  0.98904110  1
  C  C2  1  0.50448596  0.80165022  0.47550625  1
  C  C3  1  0.00449824  0.69837828  0.02449402  1
  N  N4  1  0.59837973  0.21861316  0.58506235  1
  N  N5  1  0.42835056  0.21502479  0.38022386  1
  N  N6  1  0.09836336  0.28139165  0.91495118  1
  N  N7  1  0.92833620  0.28494585  0.11976679  1
  N  N8  1  0.56788466  0.75911689  0.60327761  1
  N  N9  1  0.38886825  0.74308794  0.40689610  1
  N  N10  1  0.06785691  0.74090543  0.89671540  1
  N  N11  1  0.88886649  0.75690452  0.09312372  1
  H  H12  1  0.41381083  0.34541445  0.56244032  1
  H  H13  1  0.62730470  0.25899169  0.68761386  1
  H  H14  1  0.66669987  0.14423743  0.54298744  1
  H  H15  1  0.34706554  0.27015133  0.32142750  1
  H  H16  1  0.49301744  0.14893048  0.31893429  1
  H  H17  1  0.91383601  0.15457128  0.93753171  1
  H  H18  1  0.12731500  0.24102801  0.81239671  1
  H  H19  1  0.16667824  0.35576616  0.95704445  1
  H  H20  1  0.84704611  0.22979444  0.17855880  1
  H  H21  1  0.99297784  0.35103935  0.18108517  1
  H  H22  1  0.55258956  0.89166468  0.41905668  1
  H  H23  1  0.65264052  0.81546138  0.65248054  1
  H  H24  1  0.52544003  0.67605912  0.66197990  1
  H  H25  1  0.35519379  0.77866718  0.30139750  1
  H  H26  1  0.33841483  0.65696228  0.44906571  1
  H  H27  1  0.05265109  0.60837601  0.08094973  1
  H  H28  1  0.15262310  0.68458630  0.84749809  1
  H  H29  1  0.02536538  0.82395067  0.83800411  1
  H  H30  1  0.85522459  0.72133216  0.19862939  1
  H  H31  1  0.83837125  0.84302110  0.05095266  1
  Be  Be32  1  0.38758905  0.00282462  0.96937305  1
  Be  Be33  1  0.88758253  0.49718540  0.53063700  1
  Ba  Ba34  1  0.04731275  0.99790074  0.47473383  1
  Ba  Ba35  1  0.54729702  0.50210720  0.02527357  1
  Br  Br36  1  0.52701650  0.18511398  0.98416511  1
  Br  Br37  1  0.20735880  0.99828408  0.14419704  1
  Br  Br38  1  0.74704432  0.03076082  0.29440967  1
  Br  Br39  1  0.02700850  0.31489038  0.51585030  1
  Br  Br40  1  0.29730529  0.00351962  0.73547409  1
  Br  Br41  1  0.82752688  0.97438385  0.75602241  1
  Br  Br42  1  0.52034455  0.82072584  0.01326204  1
  Br  Br43  1  0.70735219  0.50171195  0.35581401  1
  Br  Br44  1  0.24703132  0.46921691  0.20560083  1
  Br  Br45  1  0.02032917  0.67928188  0.48673309  1
  Br  Br46  1  0.32754240  0.52563839  0.74396434  1
  Br  Br47  1  0.79730107  0.49650158  0.76453913  1
