# generated using pymatgen
data_BeSnH10C2(Br3N2)2
_symmetry_space_group_name_H-M   'P 1'
_cell_length_a   8.77018729
_cell_length_b   9.84782818
_cell_length_c   8.42876039
_cell_angle_alpha   88.26742399
_cell_angle_beta   89.99967583
_cell_angle_gamma   89.99759051
_symmetry_Int_Tables_number   1
_chemical_formula_structural   BeSnH10C2(Br3N2)2
_chemical_formula_sum   'Be2 Sn2 H20 C4 Br12 N8'
_cell_volume   727.63645174
_cell_formula_units_Z   2
loop_
 _symmetry_equiv_pos_site_id
 _symmetry_equiv_pos_as_xyz
  1  'x, y, z'
loop_
 _atom_site_type_symbol
 _atom_site_label
 _atom_site_symmetry_multiplicity
 _atom_site_fract_x
 _atom_site_fract_y
 _atom_site_fract_z
 _atom_site_occupancy
  C  C0  1  0.49172475  0.28706242  0.49787217  1
  C  C1  1  0.99179321  0.21294867  0.00212325  1
  C  C2  1  0.49892224  0.80175226  0.49825519  1
  C  C3  1  -0.00105409  0.69824494  0.00171759  1
  N  N4  1  0.59213895  0.23083796  0.59413390  1
  N  N5  1  0.40410212  0.22528291  0.39673615  1
  N  N6  1  0.09224549  0.26918796  0.90590695  1
  N  N7  1  0.90415262  0.27472007  0.10325304  1
  N  N8  1  0.59356916  0.74411948  0.59963860  1
  N  N9  1  0.40372499  0.73995048  0.40488601  1
  N  N10  1  0.09361067  0.75587562  0.90036545  1
  N  N11  1  0.90372075  0.76005572  0.09507893  1
  H  H12  1  0.47812262  0.39660400  0.50342909  1
  H  H13  1  0.65531699  0.29172665  0.66573535  1
  H  H14  1  0.61459690  0.12934902  0.60192616  1
  H  H15  1  0.33221522  0.28350142  0.32682659  1
  H  H16  1  0.40988480  0.12459575  0.37382862  1
  H  H17  1  0.97818523  0.10341232  0.99651852  1
  H  H18  1  0.15544516  0.20830468  0.83430244  1
  H  H19  1  0.11473066  0.37067594  0.89816501  1
  H  H20  1  0.83224597  0.21649007  0.17312659  1
  H  H21  1  0.90994325  0.37538666  0.12619200  1
  H  H22  1  0.49981461  0.91210494  0.49057884  1
  H  H23  1  0.66243138  0.80373689  0.66709830  1
  H  H24  1  0.60472153  0.64144963  0.61545158  1
  H  H25  1  0.33873351  0.79665867  0.32643862  1
  H  H26  1  0.39139586  0.63718041  0.40235951  1
  H  H27  1  -0.00017236  0.58789584  0.00938877  1
  H  H28  1  0.16248948  0.69626098  0.83292318  1
  H  H29  1  0.10477770  0.85854726  0.88456431  1
  H  H30  1  0.83871396  0.70334176  0.17350998  1
  H  H31  1  0.89138819  0.86281964  0.09759708  1
  Be  Be32  1  0.39451696  0.99980124  0.98323955  1
  Be  Be33  1  0.89449767  0.50018938  0.51678301  1
  Sn  Sn34  1  0.99572289  0.00061490  0.50059808  1
  Sn  Sn35  1  0.49574922  0.49937579  0.99943590  1
  Br  Br36  1  0.52701274  0.18880349  0.00470719  1
  Br  Br37  1  0.22510726  0.98587476  0.17738507  1
  Br  Br38  1  0.75005866  0.01234080  0.30868155  1
  Br  Br39  1  0.02700984  0.31119077  0.49532114  1
  Br  Br40  1  0.29157465  0.01491949  0.74357446  1
  Br  Br41  1  0.81630673  0.98576353  0.75883127  1
  Br  Br42  1  0.52790656  0.81103843  0.00399205  1
  Br  Br43  1  0.72509679  0.51412320  0.32262669  1
  Br  Br44  1  0.25005749  0.48767979  0.19133778  1
  Br  Br45  1  0.02788168  0.68895118  0.49602295  1
  Br  Br46  1  0.31633647  0.51424160  0.74119130  1
  Br  Br47  1  0.79155219  0.48507364  0.75644900  1
