# generated using pymatgen
data_BeCdH10C2(Br3N2)2
_symmetry_space_group_name_H-M   'P 1'
_cell_length_a   8.35904248
_cell_length_b   10.33781185
_cell_length_c   8.40479303
_cell_angle_alpha   89.94132782
_cell_angle_beta   89.99779359
_cell_angle_gamma   89.99733825
_symmetry_Int_Tables_number   1
_chemical_formula_structural   BeCdH10C2(Br3N2)2
_chemical_formula_sum   'Be2 Cd2 H20 C4 Br12 N8'
_cell_volume   726.29315438
_cell_formula_units_Z   2
loop_
 _symmetry_equiv_pos_site_id
 _symmetry_equiv_pos_as_xyz
  1  'x, y, z'
loop_
 _atom_site_type_symbol
 _atom_site_label
 _atom_site_symmetry_multiplicity
 _atom_site_fract_x
 _atom_site_fract_y
 _atom_site_fract_z
 _atom_site_occupancy
  C  C0  1  0.50045374  0.28946908  0.50144832  1
  C  C1  1  1.00047770  0.21053106  0.99856346  1
  C  C2  1  0.50998599  0.79514808  0.49929621  1
  C  C3  1  0.00998248  0.70484277  0.00068850  1
  N  N4  1  0.59780766  0.23485095  0.60373844  1
  N  N5  1  0.41018348  0.23056872  0.39673242  1
  N  N6  1  0.09787126  0.26515242  0.89630777  1
  N  N7  1  0.91018958  0.26944583  0.10327346  1
  N  N8  1  0.60321445  0.73881569  0.60372144  1
  N  N9  1  0.40389355  0.73803719  0.40853269  1
  N  N10  1  0.10319808  0.76118951  0.89627042  1
  N  N11  1  0.90386008  0.76194798  0.09146021  1
  H  H12  1  0.49274937  0.39451727  0.50420307  1
  H  H13  1  0.66220751  0.29276743  0.67901444  1
  H  H14  1  0.61522279  0.13744715  0.61381961  1
  H  H15  1  0.34100195  0.28614285  0.32251857  1
  H  H16  1  0.40170543  0.13271347  0.38716717  1
  H  H17  1  0.99275101  0.10549263  0.99578600  1
  H  H18  1  0.16228195  0.20723323  0.82102886  1
  H  H19  1  0.11531597  0.36255034  0.88623918  1
  H  H20  1  0.84098197  0.21386157  0.17745251  1
  H  H21  1  0.90173897  0.36729495  0.11284090  1
  H  H22  1  0.52382562  0.89927989  0.48532705  1
  H  H23  1  0.67952386  0.79549562  0.66949732  1
  H  H24  1  0.59782594  0.64251531  0.62961744  1
  H  H25  1  0.33719417  0.79261745  0.33170164  1
  H  H26  1  0.38067589  0.64122128  0.41140808  1
  H  H27  1  0.02384053  0.60071585  0.01467155  1
  H  H28  1  0.17950792  0.70451769  0.83048081  1
  H  H29  1  0.09776335  0.85747924  0.87035712  1
  H  H30  1  0.83717779  0.70735277  0.16830232  1
  H  H31  1  0.88061972  0.85876040  0.08857150  1
  Be  Be32  1  0.41303230  0.98942180  0.05650195  1
  Be  Be33  1  0.91304681  0.51055043  0.44351321  1
  Cd  Cd34  1  0.98185969  0.00571908  0.52385206  1
  Cd  Cd35  1  0.48189372  0.49447348  0.97615612  1
  Br  Br36  1  0.50344685  0.16978179  0.99683872  1
  Br  Br37  1  0.21015890  0.98196011  0.20627487  1
  Br  Br38  1  0.76735286  0.01815923  0.30496248  1
  Br  Br39  1  0.00349769  0.33018403  0.50320255  1
  Br  Br40  1  0.25512023  0.01716282  0.66652452  1
  Br  Br41  1  0.80215373  0.98149488  0.77584234  1
  Br  Br42  1  0.50930057  0.81000267  1.00031812  1
  Br  Br43  1  0.71016814  0.51800412  0.29374515  1
  Br  Br44  1  0.26737174  0.48185394  0.19503363  1
  Br  Br45  1  0.00930058  0.68996820  0.49966407  1
  Br  Br46  1  0.30215080  0.51851188  0.72416811  1
  Br  Br47  1  0.75513496  0.48283889  0.83346838  1
