# generated using pymatgen
data_BeH10PdC2(Br3N2)2
_symmetry_space_group_name_H-M   'P 1'
_cell_length_a   7.96374502
_cell_length_b   11.14637876
_cell_length_c   7.95827546
_cell_angle_alpha   89.16748344
_cell_angle_beta   90.00015133
_cell_angle_gamma   90.00002278
_symmetry_Int_Tables_number   1
_chemical_formula_structural   BeH10PdC2(Br3N2)2
_chemical_formula_sum   'Be2 H20 Pd2 C4 Br12 N8'
_cell_volume   706.35701650
_cell_formula_units_Z   2
loop_
 _symmetry_equiv_pos_site_id
 _symmetry_equiv_pos_as_xyz
  1  'x, y, z'
loop_
 _atom_site_type_symbol
 _atom_site_label
 _atom_site_symmetry_multiplicity
 _atom_site_fract_x
 _atom_site_fract_y
 _atom_site_fract_z
 _atom_site_occupancy
  C  C0  1  0.49437616  0.29202278  0.50205480  1
  C  C1  1  0.99442042  0.20798425  0.99796918  1
  C  C2  1  0.50725508  0.79007534  0.50437906  1
  C  C3  1  0.00719677  0.70990840  0.99560081  1
  N  N4  1  0.59944697  0.24055708  0.60725699  1
  N  N5  1  0.39665151  0.23698359  0.39539794  1
  N  N6  1  0.09947475  0.25945978  0.89277863  1
  N  N7  1  0.89665167  0.26302223  0.10461481  1
  N  N8  1  0.61151466  0.73728435  0.60912660  1
  N  N9  1  0.39760581  0.73630664  0.40832693  1
  N  N10  1  0.11142708  0.76271563  0.89089269  1
  N  N11  1  0.89747446  0.76366540  0.09164180  1
  H  H12  1  0.48665446  0.38958966  0.50342555  1
  H  H13  1  0.66910634  0.29430310  0.68380387  1
  H  H14  1  0.62068220  0.15010870  0.61362209  1
  H  H15  1  0.32418309  0.28828794  0.31600169  1
  H  H16  1  0.38989071  0.14601349  0.38834477  1
  H  H17  1  0.98671496  0.11041867  0.99664307  1
  H  H18  1  0.16915718  0.20571863  0.81624572  1
  H  H19  1  0.12069443  0.34991194  0.88639191  1
  H  H20  1  0.82418551  0.21171057  0.18400300  1
  H  H21  1  0.88985278  0.35398857  0.11162619  1
  H  H22  1  0.51293456  0.88769484  0.49657914  1
  H  H23  1  0.69301682  0.79020738  0.67418047  1
  H  H24  1  0.61506179  0.64677380  0.63138048  1
  H  H25  1  0.32294800  0.78766431  0.33180214  1
  H  H26  1  0.38279703  0.64547795  0.40180274  1
  H  H27  1  0.01289283  0.61229602  0.00344478  1
  H  H28  1  0.19298658  0.70980820  0.82584562  1
  H  H29  1  0.11494506  0.85323649  0.86860183  1
  H  H30  1  0.82283899  0.71229439  0.16814347  1
  H  H31  1  0.88265454  0.85448262  0.09814009  1
  Be  Be32  1  0.41921373  0.99776376  0.07008112  1
  Be  Be33  1  0.91931058  0.50225396  0.42988540  1
  Pd  Pd34  1  0.01207455  0.00530290  0.49192769  1
  Pd  Pd35  1  0.51207925  0.49471498  0.00808261  1
  Br  Br36  1  0.49737429  0.16631816  0.00629297  1
  Br  Br37  1  0.19129506  0.97474544  0.22562323  1
  Br  Br38  1  0.76263098  0.01444970  0.31023699  1
  Br  Br39  1  0.99741407  0.33370459  0.49375723  1
  Br  Br40  1  0.25828242  0.01663836  0.67655574  1
  Br  Br41  1  0.82778799  0.98837583  0.73484785  1
  Br  Br42  1  0.50739193  0.83345121  0.00137123  1
  Br  Br43  1  0.69133696  0.52518221  0.27438728  1
  Br  Br44  1  0.26265951  0.48557134  0.18980542  1
  Br  Br45  1  0.00744982  0.66658709  0.49856006  1
  Br  Br46  1  0.32776139  0.51166702  0.76519437  1
  Br  Br47  1  0.75826362  0.48336371  0.82342672  1
