# generated using pymatgen
data_YBeH10C2(Br3N2)2
_symmetry_space_group_name_H-M   'P 1'
_cell_length_a   6.94095112
_cell_length_b   11.93018776
_cell_length_c   8.44833733
_cell_angle_alpha   88.54497196
_cell_angle_beta   96.76038951
_cell_angle_gamma   88.17069906
_symmetry_Int_Tables_number   1
_chemical_formula_structural   YBeH10C2(Br3N2)2
_chemical_formula_sum   'Y2 Be2 H20 C4 Br12 N8'
_cell_volume   694.06253554
_cell_formula_units_Z   2
loop_
 _symmetry_equiv_pos_site_id
 _symmetry_equiv_pos_as_xyz
  1  'x, y, z'
loop_
 _atom_site_type_symbol
 _atom_site_label
 _atom_site_symmetry_multiplicity
 _atom_site_fract_x
 _atom_site_fract_y
 _atom_site_fract_z
 _atom_site_occupancy
  C  C0  1  0.40200656  0.28910977  0.44831477  1
  C  C1  1  0.90381338  0.19339155  0.14819938  1
  C  C2  1  0.58254355  0.79887747  0.54552509  1
  C  C3  1  0.09142051  0.70325098  0.90716701  1
  N  N4  1  0.53413398  0.26995248  0.56823582  1
  N  N5  1  0.35713485  0.21536693  0.33081004  1
  N  N6  1  0.94192657  0.22936624  0.98834710  1
  N  N7  1  0.83106279  0.29842173  0.22147610  1
  N  N8  1  0.56339918  0.72008604  0.65263752  1
  N  N9  1  0.54215760  0.78943431  0.39110959  1
  N  N10  1  0.06274416  0.78143022  0.79358676  1
  N  N11  1  0.04945304  0.71386719  0.05313097  1
  H  H12  1  0.32513523  0.37072395  0.43990623  1
  H  H13  1  0.56063500  0.33013950  0.65158120  1
  H  H14  1  0.61615059  0.19597666  0.58108225  1
  H  H15  1  0.29454020  0.25549893  0.22688242  1
  H  H16  1  0.46691953  0.15629176  0.31583221  1
  H  H17  1  0.77501320  0.14146524  0.12834013  1
  H  H18  1  0.90734846  0.16753444  0.90909487  1
  H  H19  1  0.08387992  0.24672556  0.97977159  1
  H  H20  1  0.78863667  0.27778284  0.33098143  1
  H  H21  1  0.95070560  0.34568724  0.25293457  1
  H  H22  1  0.63553452  0.87906746  0.58824750  1
  H  H23  1  0.59277993  0.73391002  0.77228195  1
  H  H24  1  0.51629519  0.64246641  0.62259352  1
  H  H25  1  0.56620702  0.85519737  0.31740831  1
  H  H26  1  0.49413619  0.71806888  0.33793453  1
  H  H27  1  0.15361493  0.62259724  0.87681795  1
  H  H28  1  0.09631302  0.76618865  0.68114852  1
  H  H29  1  0.00952591  0.85998674  0.81338334  1
  H  H30  1  0.08470869  0.64853675  0.13272898  1
  H  H31  1  0.99331230  0.78533623  0.09701352  1
  Be  Be32  1  0.45022055  0.05137090  0.90502531  1
  Be  Be33  1  0.96007241  0.44295190  0.58453117  1
  Y  Y34  1  0.08266290  0.06424549  0.35155562  1
  Y  Y35  1  0.62337512  0.43510172  0.06679283  1
  Br  Br36  1  0.44306902  0.23794059  0.92947649  1
  Br  Br37  1  0.29042569  0.97960175  0.09463621  1
  Br  Br38  1  0.71010844  0.04750411  0.42982592  1
  Br  Br39  1  0.01393202  0.26400450  0.59752579  1
  Br  Br40  1  0.28594330  0.01463092  0.67331765  1
  Br  Br41  1  0.72869828  0.97020916  0.91385587  1
  Br  Br42  1  0.56836911  0.66754107  0.03910534  1
  Br  Br43  1  0.76321138  0.52245832  0.38358721  1
  Br  Br44  1  0.24161881  0.45608794  0.14125705  1
  Br  Br45  1  0.05087848  0.83227083  0.38702193  1
  Br  Br46  1  0.22661041  0.52869979  0.61125489  1
  Br  Br47  1  0.78763516  0.48370721  0.78683035  1
