# generated using pymatgen
data_SrBeH10C2(Br3N2)2
_symmetry_space_group_name_H-M   'P 1'
_cell_length_a   8.82621089
_cell_length_b   9.68343306
_cell_length_c   8.47216058
_cell_angle_alpha   88.48515098
_cell_angle_beta   89.99944275
_cell_angle_gamma   90.00092508
_symmetry_Int_Tables_number   1
_chemical_formula_structural   SrBeH10C2(Br3N2)2
_chemical_formula_sum   'Sr2 Be2 H20 C4 Br12 N8'
_cell_volume   723.84574162
_cell_formula_units_Z   2
loop_
 _symmetry_equiv_pos_site_id
 _symmetry_equiv_pos_as_xyz
  1  'x, y, z'
loop_
 _atom_site_type_symbol
 _atom_site_label
 _atom_site_symmetry_multiplicity
 _atom_site_fract_x
 _atom_site_fract_y
 _atom_site_fract_z
 _atom_site_occupancy
  C  C0  1  0.48362803  0.26013385  0.51025120  1
  C  C1  1  0.98360903  0.23986092  0.98977284  1
  C  C2  1  0.50021781  0.80883313  0.47511429  1
  C  C3  1  1.00020668  0.69117531  0.02491077  1
  N  N4  1  0.60348359  0.21518289  0.58652948  1
  N  N5  1  0.43106311  0.20742995  0.37925367  1
  N  N6  1  0.10347230  0.28480929  0.91347415  1
  N  N7  1  0.93105301  0.29257958  0.12075819  1
  N  N8  1  0.57365500  0.76402730  0.60029988  1
  N  N9  1  0.38421501  0.74621304  0.41057083  1
  N  N10  1  0.07363280  0.73596078  0.89969987  1
  N  N11  1  0.88419516  0.75379064  0.08943273  1
  H  H12  1  0.42111663  0.34631967  0.56040416  1
  H  H13  1  0.63514890  0.26029220  0.68870951  1
  H  H14  1  0.67078543  0.13787372  0.54526223  1
  H  H15  1  0.35009248  0.26320061  0.31795792  1
  H  H16  1  0.49416553  0.13878820  0.31713202  1
  H  H17  1  0.92111446  0.15367044  0.93962387  1
  H  H18  1  0.13513940  0.23968862  0.81128676  1
  H  H19  1  0.17077786  0.36214094  0.95472485  1
  H  H20  1  0.85009321  0.23681670  0.18205122  1
  H  H21  1  0.99415447  0.36122688  0.18285811  1
  H  H22  1  0.54080823  0.90385453  0.41723180  1
  H  H23  1  0.65905493  0.82256369  0.64745339  1
  H  H24  1  0.53901364  0.67600831  0.66002497  1
  H  H25  1  0.34165764  0.78413100  0.30614724  1
  H  H26  1  0.34154939  0.65483584  0.45433366  1
  H  H27  1  0.04082174  0.59617749  0.08281999  1
  H  H28  1  0.15904430  0.67742883  0.85255713  1
  H  H29  1  0.03896790  0.82396064  0.83994884  1
  H  H30  1  0.84164967  0.71589784  0.19387152  1
  H  H31  1  0.84151571  0.84515079  0.04564367  1
  Be  Be32  1  0.37908376  0.00153371  0.97222265  1
  Be  Be33  1  0.87908526  0.49847231  0.52777167  1
  Sr  Sr34  1  0.03514100  0.99796945  0.48117535  1
  Sr  Sr35  1  0.53514283  0.50204282  0.01881689  1
  Br  Br36  1  0.52091042  0.18762524  0.98680763  1
  Br  Br37  1  0.20139885  0.99550430  0.15696700  1
  Br  Br38  1  0.75947548  0.02634694  0.29278582  1
  Br  Br39  1  0.02091712  0.31238406  0.51319324  1
  Br  Br40  1  0.28576762  0.00505495  0.73053834  1
  Br  Br41  1  0.83257916  0.97589543  0.75745030  1
  Br  Br42  1  0.51609267  0.81658564  0.01234801  1
  Br  Br43  1  0.70139589  0.50449639  0.34304023  1
  Br  Br44  1  0.25948103  0.47365632  0.20721345  1
  Br  Br45  1  0.01609936  0.68342208  0.48764767  1
  Br  Br46  1  0.33257103  0.52410646  0.74255299  1
  Br  Br47  1  0.78577483  0.49494325  0.76946275  1
