# generated using pymatgen
data_BeGeH10C2(Br3N2)2
_symmetry_space_group_name_H-M   'P 1'
_cell_length_a   8.26244088
_cell_length_b   10.15081182
_cell_length_c   8.61763538
_cell_angle_alpha   88.87992602
_cell_angle_beta   90.00208268
_cell_angle_gamma   90.00000634
_symmetry_Int_Tables_number   1
_chemical_formula_structural   BeGeH10C2(Br3N2)2
_chemical_formula_sum   'Be2 Ge2 H20 C4 Br12 N8'
_cell_volume   722.62713482
_cell_formula_units_Z   2
loop_
 _symmetry_equiv_pos_site_id
 _symmetry_equiv_pos_as_xyz
  1  'x, y, z'
loop_
 _atom_site_type_symbol
 _atom_site_label
 _atom_site_symmetry_multiplicity
 _atom_site_fract_x
 _atom_site_fract_y
 _atom_site_fract_z
 _atom_site_occupancy
  C  C0  1  0.49100354  0.30376235  0.49143742  1
  C  C1  1  0.99108109  0.19620383  0.00856474  1
  C  C2  1  0.50377087  0.78412132  0.49989452  1
  C  C3  1  0.00381660  0.71588343  0.00009999  1
  N  N4  1  0.59238106  0.24332225  0.58529600  1
  N  N5  1  0.39638899  0.24783816  0.39014398  1
  N  N6  1  0.09248949  0.25667200  0.91481811  1
  N  N7  1  0.89638496  0.25207572  0.10985496  1
  N  N8  1  0.60724057  0.72608392  0.59364706  1
  N  N9  1  0.40610078  0.72713772  0.40166313  1
  N  N10  1  0.10716958  0.77396348  0.90623211  1
  N  N11  1  0.90617948  0.77282377  0.09836408  1
  H  H12  1  0.48456431  0.41042754  0.49895047  1
  H  H13  1  0.66207078  0.29754995  0.65859492  1
  H  H14  1  0.60732669  0.14355740  0.59066272  1
  H  H15  1  0.31738820  0.30576150  0.32709738  1
  H  H16  1  0.39048768  0.14829748  0.37593940  1
  H  H17  1  0.98463501  0.08953649  0.00099187  1
  H  H18  1  0.16225202  0.20248287  0.84152659  1
  H  H19  1  0.10745832  0.35645079  0.90952530  1
  H  H20  1  0.81734197  0.19412346  0.17280476  1
  H  H21  1  0.89046245  0.35160901  0.12410215  1
  H  H22  1  0.49824300  0.89111020  0.50336945  1
  H  H23  1  0.67825899  0.78323393  0.66238944  1
  H  H24  1  0.62521937  0.62692659  0.60106726  1
  H  H25  1  0.33043742  0.78546559  0.33582481  1
  H  H26  1  0.39438519  0.62800899  0.39038550  1
  H  H27  1  -0.00157835  0.60889132  0.99667208  1
  H  H28  1  0.17816825  0.71683441  0.83745450  1
  H  H29  1  0.12500936  0.87313348  0.89872115  1
  H  H30  1  0.83061639  0.71446831  0.16427785  1
  H  H31  1  0.89436280  0.87195309  0.10962161  1
  Be  Be32  1  0.48708769  0.99833718  0.10358088  1
  Be  Be33  1  0.98708894  0.50165249  0.39643532  1
  Ge  Ge34  1  0.00912709  0.04296479  0.50574267  1
  Ge  Ge35  1  0.50913816  0.45724024  0.99424049  1
  Br  Br36  1  0.50023752  0.19018960  0.96152473  1
  Br  Br37  1  0.24344395  0.98835984  0.20893665  1
  Br  Br38  1  0.68192330  0.01410128  0.27787747  1
  Br  Br39  1  1.00024361  0.30992747  0.53867479  1
  Br  Br40  1  0.25584929  0.02225973  0.67198009  1
  Br  Br41  1  0.81933414  0.99522815  0.72726325  1
  Br  Br42  1  0.51744113  0.82818807  0.96700222  1
  Br  Br43  1  0.74343857  0.51157594  0.29107272  1
  Br  Br44  1  0.18191821  0.48580321  0.22214907  1
  Br  Br45  1  0.01742022  0.67187287  0.53289197  1
  Br  Br46  1  0.31933778  0.50483676  0.77269630  1
  Br  Br47  1  0.75587290  0.47781501  0.82804083  1
