# generated using pymatgen
data_BeZnH10C2(Br3N2)2
_symmetry_space_group_name_H-M   'P 1'
_cell_length_a   6.70697711
_cell_length_b   13.53342295
_cell_length_c   8.24734422
_cell_angle_alpha   89.73742382
_cell_angle_beta   90.00183751
_cell_angle_gamma   89.94221482
_symmetry_Int_Tables_number   1
_chemical_formula_structural   BeZnH10C2(Br3N2)2
_chemical_formula_sum   'Be2 Zn2 H20 C4 Br12 N8'
_cell_volume   748.58964950
_cell_formula_units_Z   2
loop_
 _symmetry_equiv_pos_site_id
 _symmetry_equiv_pos_as_xyz
  1  'x, y, z'
loop_
 _atom_site_type_symbol
 _atom_site_label
 _atom_site_symmetry_multiplicity
 _atom_site_fract_x
 _atom_site_fract_y
 _atom_site_fract_z
 _atom_site_occupancy
  C  C0  1  0.45535206  0.32633880  0.48352011  1
  C  C1  1  0.95398652  0.17377793  0.01662810  1
  C  C2  1  0.54610156  0.82726711  0.51922346  1
  C  C3  1  0.04481702  0.67259707  0.98068212  1
  N  N4  1  0.46680361  0.31563537  0.64117749  1
  N  N5  1  0.45498176  0.25386020  0.37856371  1
  N  N6  1  0.96612346  0.18416159  0.85895171  1
  N  N7  1  0.95604836  0.24634658  0.12140090  1
  N  N8  1  0.54258189  0.75323512  0.62237146  1
  N  N9  1  0.53509094  0.81893396  0.36142801  1
  N  N10  1  0.04374439  0.74658566  0.87740869  1
  N  N11  1  0.03452720  0.68117967  0.13847384  1
  H  H12  1  0.44608324  0.40159033  0.43592265  1
  H  H13  1  0.47412313  0.37721991  0.71152862  1
  H  H14  1  0.47632094  0.24897652  0.69947403  1
  H  H15  1  0.43869008  0.26860832  0.25782930  1
  H  H16  1  0.45849641  0.18146943  0.41423165  1
  H  H17  1  0.94211769  0.09868407  0.06445652  1
  H  H18  1  0.97061494  0.12239818  0.78888959  1
  H  H19  1  0.97765754  0.25063225  0.80033762  1
  H  H20  1  0.93936769  0.23187301  0.24219060  1
  H  H21  1  0.96248321  0.31866774  0.08568584  1
  H  H22  1  0.55733658  0.90183175  0.56859850  1
  H  H23  1  0.55591596  0.76584618  0.74407865  1
  H  H24  1  0.53687358  0.68143428  0.58519774  1
  H  H25  1  0.53517545  0.88134971  0.29168484  1
  H  H26  1  0.52311886  0.75328666  0.30115549  1
  H  H27  1  0.05345653  0.59789650  0.93145653  1
  H  H28  1  0.05664947  0.73376372  0.75573678  1
  H  H29  1  0.04103731  0.81844834  0.91455198  1
  H  H30  1  0.03192174  0.61886155  0.20843741  1
  H  H31  1  0.02452108  0.74698512  0.19854116  1
  Be  Be32  1  0.47257218  0.02967983  0.97211085  1
  Be  Be33  1  0.97338528  0.47031358  0.52783502  1
  Zn  Zn34  1  0.03185456  0.97152246  0.46147617  1
  Zn  Zn35  1  0.53087617  0.52858014  0.03809501  1
  Br  Br36  1  0.46531570  0.18329511  0.98423235  1
  Br  Br37  1  0.24535654  0.95105986  0.09233108  1
  Br  Br38  1  0.75555615  0.05147272  0.35060643  1
  Br  Br39  1  0.96593679  0.31670067  0.51598389  1
  Br  Br40  1  0.27482001  0.05706741  0.60740924  1
  Br  Br41  1  0.71454770  0.95551814  0.86881093  1
  Br  Br42  1  0.53820375  0.70060601  0.01892862  1
  Br  Br43  1  0.74625188  0.54910396  0.40745621  1
  Br  Br44  1  0.25545587  0.44872853  0.14996380  1
  Br  Br45  1  0.03873697  0.79947262  0.48095485  1
  Br  Br46  1  0.21487536  0.54430115  0.63177651  1
  Br  Br47  1  0.77415421  0.44289818  0.89231869  1
