# generated using pymatgen
data_CaBeH10C2(Br3N2)2
_symmetry_space_group_name_H-M   'P 1'
_cell_length_a   8.81992547
_cell_length_b   9.52818336
_cell_length_c   8.31397910
_cell_angle_alpha   88.36976317
_cell_angle_beta   89.99955160
_cell_angle_gamma   89.99762484
_symmetry_Int_Tables_number   1
_chemical_formula_structural   CaBeH10C2(Br3N2)2
_chemical_formula_sum   'Ca2 Be2 H20 C4 Br12 N8'
_cell_volume   698.40626935
_cell_formula_units_Z   2
loop_
 _symmetry_equiv_pos_site_id
 _symmetry_equiv_pos_as_xyz
  1  'x, y, z'
loop_
 _atom_site_type_symbol
 _atom_site_label
 _atom_site_symmetry_multiplicity
 _atom_site_fract_x
 _atom_site_fract_y
 _atom_site_fract_z
 _atom_site_occupancy
  C  C0  1  0.48620529  0.26098506  0.50884210  1
  C  C1  1  0.98620325  0.23903359  0.99113193  1
  C  C2  1  0.49967118  0.80971101  0.47441880  1
  C  C3  1  0.99968629  0.69026199  0.02559645  1
  N  N4  1  0.60554420  0.21550584  0.58778152  1
  N  N5  1  0.43100335  0.20390438  0.37905124  1
  N  N6  1  0.10555045  0.28449807  0.91219966  1
  N  N7  1  0.93100079  0.29611151  0.12094237  1
  N  N8  1  0.57829438  0.76393164  0.59846738  1
  N  N9  1  0.38222343  0.74552826  0.41320069  1
  N  N10  1  0.07831160  0.73607477  0.90155644  1
  N  N11  1  0.88222906  0.75445256  0.08683777  1
  H  H12  1  0.42604428  0.35138565  0.55620234  1
  H  H13  1  0.64004503  0.26550793  0.68817941  1
  H  H14  1  0.67129972  0.13469559  0.54881802  1
  H  H15  1  0.35009642  0.25966338  0.31541880  1
  H  H16  1  0.49172942  0.13144669  0.31775801  1
  H  H17  1  0.92601922  0.14865811  0.94376163  1
  H  H18  1  0.14003500  0.23451246  0.81180431  1
  H  H19  1  0.17131662  0.36529227  0.95118791  1
  H  H20  1  0.85008643  0.24035096  0.18457582  1
  H  H21  1  0.99175594  0.36855050  0.18225408  1
  H  H22  1  0.53753302  0.90678602  0.41456209  1
  H  H23  1  0.66522187  0.82329633  0.64333309  1
  H  H24  1  0.54698376  0.67390039  0.66007177  1
  H  H25  1  0.33378636  0.78532726  0.31017835  1
  H  H26  1  0.34194748  0.65231536  0.45942853  1
  H  H27  1  0.03753065  0.59318907  0.08542307  1
  H  H28  1  0.16524144  0.67670052  0.85666305  1
  H  H29  1  0.04698907  0.82611694  0.83996615  1
  H  H30  1  0.83380071  0.71463353  0.18983357  1
  H  H31  1  0.84197850  0.84767332  0.04061505  1
  Be  Be32  1  0.37417334  1.00009453  0.97394542  1
  Be  Be33  1  0.87418027  0.49991270  0.52605501  1
  Ca  Ca34  1  0.02517503  0.99924057  0.48670318  1
  Ca  Ca35  1  0.52517593  0.50076701  0.01329895  1
  Br  Br36  1  0.51845325  0.18906464  0.98835496  1
  Br  Br37  1  0.19836910  0.99395169  0.16704952  1
  Br  Br38  1  0.76794212  0.02357505  0.29542322  1
  Br  Br39  1  0.01847017  0.31094746  0.51163742  1
  Br  Br40  1  0.27884438  0.00545199  0.72518036  1
  Br  Br41  1  0.83552508  0.97740110  0.75547899  1
  Br  Br42  1  0.51382654  0.81206472  0.01140289  1
  Br  Br43  1  0.69837038  0.50605695  0.33295560  1
  Br  Br44  1  0.26794612  0.47644274  0.20458405  1
  Br  Br45  1  0.01383976  0.68794092  0.48862028  1
  Br  Br46  1  0.33551108  0.52260893  0.74452895  1
  Br  Br47  1  0.77885257  0.49454104  0.77482458  1
