# generated using pymatgen
data_AlZnH12C2(I3N)2
_symmetry_space_group_name_H-M   'P 1'
_cell_length_a   8.49480529
_cell_length_b   11.56869053
_cell_length_c   8.60665185
_cell_angle_alpha   88.10824183
_cell_angle_beta   84.54800374
_cell_angle_gamma   88.41253981
_symmetry_Int_Tables_number   1
_chemical_formula_structural   AlZnH12C2(I3N)2
_chemical_formula_sum   'Al2 Zn2 H24 C4 I12 N4'
_cell_volume   841.26637970
_cell_formula_units_Z   2
loop_
 _symmetry_equiv_pos_site_id
 _symmetry_equiv_pos_as_xyz
  1  'x, y, z'
loop_
 _atom_site_type_symbol
 _atom_site_label
 _atom_site_symmetry_multiplicity
 _atom_site_fract_x
 _atom_site_fract_y
 _atom_site_fract_z
 _atom_site_occupancy
  C  C0  1  0.45119101  0.24315213  0.40006998  1
  C  C1  1  0.95861092  0.23285232  0.08332546  1
  C  C2  1  0.54547981  0.76484403  0.59563204  1
  C  C3  1  0.07750526  0.75629077  0.90919416  1
  N  N4  1  0.54384609  0.22947790  0.53792357  1
  N  N5  1  0.05041313  0.25612457  0.93028312  1
  N  N6  1  0.42964408  0.77731637  0.47676483  1
  N  N7  1  0.97012679  0.76354556  0.05578529  1
  H  H8  1  0.52929788  0.27043557  0.29802831  1
  H  H9  1  0.39943906  0.15991740  0.38018646  1
  H  H10  1  0.35722944  0.30849001  0.42485690  1
  H  H11  1  0.65123728  0.18699282  0.51075179  1
  H  H12  1  0.56582390  0.30857946  0.58265397  1
  H  H13  1  0.48060728  0.17960426  0.62587934  1
  H  H14  1  0.04107224  0.22388125  0.17339706  1
  H  H15  1  0.89420683  0.15279015  0.07687818  1
  H  H16  1  0.87588437  0.30560010  0.10849550  1
  H  H17  1  0.12937499  0.18834470  0.89755532  1
  H  H18  1  0.11405548  0.33101320  0.93503935  1
  H  H19  1  0.97851275  0.26894606  0.83976942  1
  H  H20  1  0.48907847  0.79683843  0.70613632  1
  H  H21  1  0.57915595  0.67344665  0.60917934  1
  H  H22  1  0.64861867  0.81646860  0.55678617  1
  H  H23  1  0.38653770  0.86206467  0.46962051  1
  H  H24  1  0.33259513  0.72527337  0.50492607  1
  H  H25  1  0.47799805  0.75535956  0.36545932  1
  H  H26  1  0.00517942  0.76038204  0.81040767  1
  H  H27  1  0.15703639  0.82960576  0.90192874  1
  H  H28  1  0.14473441  0.67421301  0.91146687  1
  H  H29  1  0.90456158  0.84075894  0.05858546  1
  H  H30  1  0.89007278  0.69717359  0.06588945  1
  H  H31  1  0.03100394  0.75850612  0.15502789  1
  Al  Al32  1  0.53217340  0.96297688  0.04879372  1
  Al  Al33  1  0.89646803  0.50473471  0.52933552  1
  Zn  Zn34  1  0.01633651  0.00094999  0.51707289  1
  Zn  Zn35  1  0.39808618  0.43597734  0.94220242  1
  I  I36  1  0.55379383  0.24725780  0.96112509  1
  I  I37  1  0.24508900  0.00299338  0.19371191  1
  I  I38  1  0.71073720  0.98756569  0.28246734  1
  I  I39  1  0.98309981  0.28468822  0.52125553  1
  I  I40  1  0.28960399  0.02603895  0.72106320  1
  I  I41  1  0.75911498  0.98398414  0.81061830  1
  I  I42  1  0.50238621  0.73818813  0.04978808  1
  I  I43  1  0.69039114  0.51103696  0.32770079  1
  I  I44  1  0.20030744  0.48526708  0.17067979  1
  I  I45  1  0.01567281  0.71275141  0.47127810  1
  I  I46  1  0.31714930  0.49412638  0.67387250  1
  I  I47  1  0.79948280  0.52325190  0.82144757  1
