# generated using pymatgen
data_BeSiH10C2(Br3N2)2
_symmetry_space_group_name_H-M   'P 1'
_cell_length_a   8.51185629
_cell_length_b   9.66943631
_cell_length_c   8.63921964
_cell_angle_alpha   86.17783424
_cell_angle_beta   90.00231938
_cell_angle_gamma   90.00021990
_symmetry_Int_Tables_number   1
_chemical_formula_structural   BeSiH10C2(Br3N2)2
_chemical_formula_sum   'Be2 Si2 H20 C4 Br12 N8'
_cell_volume   709.46814648
_cell_formula_units_Z   2
loop_
 _symmetry_equiv_pos_site_id
 _symmetry_equiv_pos_as_xyz
  1  'x, y, z'
loop_
 _atom_site_type_symbol
 _atom_site_label
 _atom_site_symmetry_multiplicity
 _atom_site_fract_x
 _atom_site_fract_y
 _atom_site_fract_z
 _atom_site_occupancy
  C  C0  1  0.47628122  0.31987547  0.47568373  1
  C  C1  1  0.97628737  0.18012555  0.02430736  1
  C  C2  1  0.48005118  0.74716624  0.52586058  1
  C  C3  1  0.98007291  0.75280755  0.97416203  1
  N  N4  1  0.58535512  0.25606938  0.56044120  1
  N  N5  1  0.39213446  0.26387702  0.36929819  1
  N  N6  1  0.08536559  0.24395715  0.93957052  1
  N  N7  1  0.89211853  0.23609829  0.13069428  1
  N  N8  1  0.62273461  0.72805251  0.57972233  1
  N  N9  1  0.42533233  0.69791757  0.39817995  1
  N  N10  1  0.12274217  0.77197545  0.92028965  1
  N  N11  1  0.92533072  0.80207403  0.10181745  1
  H  H12  1  0.45144756  0.42745897  0.49729335  1
  H  H13  1  0.64676207  0.30889437  0.63941565  1
  H  H14  1  0.61587897  0.15525968  0.54836737  1
  H  H15  1  0.30752044  0.32319268  0.31163227  1
  H  H16  1  0.40360386  0.16242720  0.34481674  1
  H  H17  1  0.95147556  0.07255092  1.00267000  1
  H  H18  1  0.14677959  0.19114492  0.86060510  1
  H  H19  1  0.11587781  0.34476723  0.95167496  1
  H  H20  1  0.80752024  0.17677668  0.18833985  1
  H  H21  1  0.90357737  0.33755773  0.15519359  1
  H  H22  1  0.40000986  0.80969764  0.59120873  1
  H  H23  1  0.65526835  0.77391386  0.67761046  1
  H  H24  1  0.70662440  0.67471980  0.52314811  1
  H  H25  1  0.31334724  0.72203695  0.36416004  1
  H  H26  1  0.49588095  0.64841715  0.32372318  1
  H  H27  1  0.90006732  0.69021490  0.90884014  1
  H  H28  1  0.15530440  0.72608780  0.82242918  1
  H  H29  1  0.20659918  0.82536601  0.97684566  1
  H  H30  1  0.81336703  0.77790823  0.13584810  1
  H  H31  1  0.99585571  0.85162541  0.17625989  1
  Be  Be32  1  0.48827970  0.98400156  0.10974656  1
  Be  Be33  1  0.98828912  0.51599931  0.39024949  1
  Si  Si34  1  0.01231411  0.06336628  0.50969756  1
  Si  Si35  1  0.51230847  0.43665301  0.99030727  1
  Br  Br36  1  0.50783578  0.17420234  0.94303644  1
  Br  Br37  1  0.25117965  0.98008238  0.20617882  1
  Br  Br38  1  0.65856903  0.99675029  0.29560445  1
  Br  Br39  1  0.00784153  0.32581268  0.55697489  1
  Br  Br40  1  0.24378540  0.03123907  0.66288511  1
  Br  Br41  1  0.83002829  0.00734761  0.71350112  1
  Br  Br42  1  0.52973143  0.80773442  0.97353443  1
  Br  Br43  1  0.75117977  0.51991197  0.29381667  1
  Br  Br44  1  0.15856798  0.50324204  0.20439733  1
  Br  Br45  1  0.02974342  0.69227572  0.52645003  1
  Br  Br46  1  0.33001757  0.49267145  0.78649380  1
  Br  Br47  1  0.74377399  0.46875850  0.83712113  1
