# generated using pymatgen
data_MgBeH10C2(Br3N2)2
_symmetry_space_group_name_H-M   'P 1'
_cell_length_a   6.63205151
_cell_length_b   13.40298384
_cell_length_c   8.33893749
_cell_angle_alpha   90.04356559
_cell_angle_beta   90.05513859
_cell_angle_gamma   89.92353828
_symmetry_Int_Tables_number   1
_chemical_formula_structural   MgBeH10C2(Br3N2)2
_chemical_formula_sum   'Mg2 Be2 H20 C4 Br12 N8'
_cell_volume   741.24092654
_cell_formula_units_Z   2
loop_
 _symmetry_equiv_pos_site_id
 _symmetry_equiv_pos_as_xyz
  1  'x, y, z'
loop_
 _atom_site_type_symbol
 _atom_site_label
 _atom_site_symmetry_multiplicity
 _atom_site_fract_x
 _atom_site_fract_y
 _atom_site_fract_z
 _atom_site_occupancy
  C  C0  1  0.48921865  0.30744291  0.51049165  1
  C  C1  1  0.98863716  0.19229725  0.98990298  1
  C  C2  1  0.54204364  0.81478197  0.56692469  1
  C  C3  1  0.04061826  0.68516179  0.93253617  1
  N  N4  1  0.48458893  0.29237326  0.66606977  1
  N  N5  1  0.44280443  0.23957025  0.40384785  1
  N  N6  1  0.98388896  0.20737302  0.83431766  1
  N  N7  1  0.94343926  0.26037523  0.09656905  1
  N  N8  1  0.52101913  0.73776616  0.66244515  1
  N  N9  1  0.50089724  0.81428745  0.41321360  1
  N  N10  1  0.02218437  0.76211130  0.83644100  1
  N  N11  1  0.99895993  0.68647566  0.08606744  1
  H  H12  1  0.53185505  0.38169586  0.46903737  1
  H  H13  1  0.52951986  0.34804548  0.74234629  1
  H  H14  1  0.45202363  0.22465102  0.71561749  1
  H  H15  1  0.44715062  0.25375255  0.28326684  1
  H  H16  1  0.39456050  0.17025983  0.43948763  1
  H  H17  1  0.03031517  0.11784064  0.03134703  1
  H  H18  1  0.02822103  0.15152942  0.75810788  1
  H  H19  1  0.95236736  0.27525955  0.78472208  1
  H  H20  1  0.94768581  0.24612213  0.21713558  1
  H  H21  1  0.89603042  0.32991370  0.06098523  1
  H  H22  1  0.59378341  0.88483259  0.61979585  1
  H  H23  1  0.54619619  0.74457187  0.78353539  1
  H  H24  1  0.46859107  0.67021621  0.62216626  1
  H  H25  1  0.53578210  0.87530531  0.34588478  1
  H  H26  1  0.45496102  0.75256869  0.35125275  1
  H  H27  1  0.09045794  0.61454142  0.88033889  1
  H  H28  1  0.04752250  0.75482810  0.71548456  1
  H  H29  1  0.97171394  0.83016617  0.87622874  1
  H  H30  1  0.03160762  0.62542501  0.15415509  1
  H  H31  1  0.95463625  0.74878735  0.14726305  1
  Be  Be32  1  0.55591827  0.04056546  0.07458464  1
  Be  Be33  1  0.05579982  0.45951322  0.42599469  1
  Mg  Mg34  1  0.07150616  0.96162202  0.37755813  1
  Mg  Mg35  1  0.57023196  0.53822055  0.12267891  1
  Br  Br36  1  0.47179822  0.19075772  0.01975766  1
  Br  Br37  1  0.26210756  0.95755202  0.11309225  1
  Br  Br38  1  0.72845987  0.04220946  0.31530268  1
  Br  Br39  1  0.97189025  0.30936014  0.48068638  1
  Br  Br40  1  0.24428385  0.04124182  0.60433921  1
  Br  Br41  1  0.72941931  0.96823673  0.89426797  1
  Br  Br42  1  0.50510956  0.71286744  0.05786156  1
  Br  Br43  1  0.76183615  0.54280278  0.38705899  1
  Br  Br44  1  0.22786287  0.45789904  0.18540869  1
  Br  Br45  1  0.00714517  0.78686046  0.44148015  1
  Br  Br46  1  0.22939849  0.53136817  0.60677403  1
  Br  Br47  1  0.74397040  0.45865681  0.89627301  1
