# generated using pymatgen
data_BeH10C3(Br3N2)2
_symmetry_space_group_name_H-M   'P 1'
_cell_length_a   7.93286691
_cell_length_b   11.01785363
_cell_length_c   8.21214321
_cell_angle_alpha   88.48103612
_cell_angle_beta   90.00114762
_cell_angle_gamma   90.00242371
_symmetry_Int_Tables_number   1
_chemical_formula_structural   BeH10C3(Br3N2)2
_chemical_formula_sum   'Be2 H20 C6 Br12 N8'
_cell_volume   717.51509968
_cell_formula_units_Z   2
loop_
 _symmetry_equiv_pos_site_id
 _symmetry_equiv_pos_as_xyz
  1  'x, y, z'
loop_
 _atom_site_type_symbol
 _atom_site_label
 _atom_site_symmetry_multiplicity
 _atom_site_fract_x
 _atom_site_fract_y
 _atom_site_fract_z
 _atom_site_occupancy
  C  C0  1  0.48947351  0.28890037  0.49543967  1
  C  C1  1  0.98959273  0.21110666  0.00460182  1
  C  C2  1  0.50354275  0.79171502  0.50027510  1
  C  C3  1  0.00354320  0.70825451  0.99970509  1
  N  N4  1  0.59584931  0.23584037  0.59642148  1
  N  N5  1  0.39405703  0.23410837  0.39014978  1
  N  N6  1  0.09593529  0.26416256  0.90356695  1
  N  N7  1  0.89422707  0.26589696  0.10991451  1
  N  N8  1  0.61106756  0.73676850  0.59755338  1
  N  N9  1  0.40238543  0.73857711  0.39750606  1
  N  N10  1  0.11106420  0.76316058  0.90236580  1
  N  N11  1  0.90238114  0.76144061  0.10240432  1
  H  H12  1  0.47870000  0.38732462  0.50038963  1
  H  H13  1  0.66803232  0.28903223  0.66912260  1
  H  H14  1  0.61968295  0.14470017  0.60065807  1
  H  H15  1  0.31237522  0.28529859  0.32131119  1
  H  H16  1  0.39027561  0.14228069  0.37667136  1
  H  H17  1  0.97881146  0.11267889  -0.00031611  1
  H  H18  1  0.16807343  0.21096241  0.83085333  1
  H  H19  1  0.11977357  0.35529720  0.89929029  1
  H  H20  1  0.81259212  0.21471451  0.17880471  1
  H  H21  1  0.89047141  0.35772802  0.12337265  1
  H  H22  1  0.49830349  0.89046495  0.50373418  1
  H  H23  1  0.68862920  0.78825229  0.66701091  1
  H  H24  1  0.62460726  0.64462566  0.60768742  1
  H  H25  1  0.31423413  0.79029689  0.33732678  1
  H  H26  1  0.39293017  0.64667844  0.38682008  1
  H  H27  1  -0.00168839  0.60949987  0.99636007  1
  H  H28  1  0.18861676  0.71163581  0.83295433  1
  H  H29  1  0.12459587  0.85529939  0.89210960  1
  H  H30  1  0.81426447  0.70974142  0.16266956  1
  H  H31  1  0.89294548  0.85334451  0.11300981  1
  Be  Be32  1  0.48570011  0.93924520  0.12233600  1
  Be  Be33  1  0.98574689  0.56083020  0.37770651  1
  C  C34  1  0.01606824  0.03115835  0.55627554  1
  C  C35  1  0.51613852  0.46884415  0.94379530  1
  Br  Br36  1  0.49301842  0.28803591  0.99373715  1
  Br  Br37  1  0.24282941  0.99071168  0.19415760  1
  Br  Br38  1  0.69388518  0.01205329  0.24442190  1
  Br  Br39  1  0.99293240  0.21197356  0.50635201  1
  Br  Br40  1  0.24264436  0.01981942  0.69481584  1
  Br  Br41  1  0.82650376  0.99285082  0.73566841  1
  Br  Br42  1  0.51457271  0.79467978  0.97414384  1
  Br  Br43  1  0.74290134  0.50924600  0.30594003  1
  Br  Br44  1  0.19393709  0.48799057  0.25567654  1
  Br  Br45  1  0.01459570  0.70551003  0.52570790  1
  Br  Br46  1  0.32652036  0.50714127  0.76439166  1
  Br  Br47  1  0.74267911  0.48018456  0.80523411  1
