# generated using pymatgen
data_BiBH10C2(Br3N2)2
_symmetry_space_group_name_H-M   'P 1'
_cell_length_a   8.13149598
_cell_length_b   11.06671124
_cell_length_c   8.14994256
_cell_angle_alpha   90.67324736
_cell_angle_beta   89.99564485
_cell_angle_gamma   89.99060371
_symmetry_Int_Tables_number   1
_chemical_formula_structural   BiBH10C2(Br3N2)2
_chemical_formula_sum   'Bi2 B2 H20 C4 Br12 N8'
_cell_volume   733.35386975
_cell_formula_units_Z   2
loop_
 _symmetry_equiv_pos_site_id
 _symmetry_equiv_pos_as_xyz
  1  'x, y, z'
loop_
 _atom_site_type_symbol
 _atom_site_label
 _atom_site_symmetry_multiplicity
 _atom_site_fract_x
 _atom_site_fract_y
 _atom_site_fract_z
 _atom_site_occupancy
  C  C0  1  0.49621068  0.29130891  0.49778975  1
  C  C1  1  0.99624459  0.20870542  0.00222676  1
  C  C2  1  0.50483362  0.79031366  0.50380987  1
  C  C3  1  0.00478186  0.70967439  0.99616488  1
  N  N4  1  0.59857568  0.23837714  0.59795994  1
  N  N5  1  0.39756014  0.23646724  0.39414649  1
  N  N6  1  0.09863217  0.26163151  0.90209072  1
  N  N7  1  0.89756809  0.26354615  0.10589294  1
  N  N8  1  0.60476584  0.73645386  0.60556607  1
  N  N9  1  0.40060393  0.73653457  0.40434449  1
  N  N10  1  0.10473326  0.76354060  0.89442706  1
  N  N11  1  0.90050737  0.76344527  0.09562519  1
  H  H12  1  0.49223752  0.38973528  0.50123207  1
  H  H13  1  0.67210735  0.29107963  0.67116916  1
  H  H14  1  0.60776408  0.14685889  0.60955858  1
  H  H15  1  0.32055038  0.28786394  0.32440988  1
  H  H16  1  0.39473594  0.14505207  0.37678411  1
  H  H17  1  0.99226596  0.11028069  0.99874448  1
  H  H18  1  0.17217831  0.20892373  0.82886910  1
  H  H19  1  0.10783463  0.35315165  0.89051927  1
  H  H20  1  0.82055717  0.21214021  0.17560876  1
  H  H21  1  0.89470976  0.35495716  0.12327570  1
  H  H22  1  0.50907163  0.88875884  0.50162324  1
  H  H23  1  0.67953993  0.78969683  0.67700375  1
  H  H24  1  0.61452197  0.64484011  0.61732198  1
  H  H25  1  0.32985644  0.78909939  0.32998863  1
  H  H26  1  0.38255892  0.64515008  0.39754122  1
  H  H27  1  0.00905277  0.61122993  0.99832939  1
  H  H28  1  0.17955235  0.71028798  0.82300534  1
  H  H29  1  0.11445220  0.85514975  0.88267646  1
  H  H30  1  0.82976616  0.71086720  0.16995675  1
  H  H31  1  0.88243676  0.85483139  0.10247481  1
  B  B32  1  0.46917521  0.96861773  0.03990817  1
  B  B33  1  0.96963151  0.53139912  0.45966355  1
  Bi  Bi34  1  0.99887681  0.00992092  0.49856399  1
  Bi  Bi35  1  0.49886644  0.49010289  0.00150323  1
  Br  Br36  1  0.49982930  0.24781000  0.99884526  1
  Br  Br37  1  0.24081689  0.98280580  0.20627199  1
  Br  Br38  1  0.72133780  0.01248846  0.26926634  1
  Br  Br39  1  0.99982080  0.25220974  0.50124985  1
  Br  Br40  1  0.27641575  0.01246780  0.71675400  1
  Br  Br41  1  0.78624977  0.98711261  0.76477609  1
  Br  Br42  1  0.50184748  0.78589516  0.00284833  1
  Br  Br43  1  0.74079968  0.51721889  0.29365424  1
  Br  Br44  1  0.22113720  0.48755475  0.23090903  1
  Br  Br45  1  0.00190877  0.71411688  0.49709025  1
  Br  Br46  1  0.28621238  0.51287396  0.73528359  1
  Br  Br47  1  0.77632606  0.48751479  0.78337999  1
