# generated using pymatgen
data_TlBH10C2(Br3N2)2
_symmetry_space_group_name_H-M   'P 1'
_cell_length_a   8.71801276
_cell_length_b   9.82543734
_cell_length_c   8.75310195
_cell_angle_alpha   88.39892745
_cell_angle_beta   89.99840922
_cell_angle_gamma   89.99518726
_symmetry_Int_Tables_number   1
_chemical_formula_structural   TlBH10C2(Br3N2)2
_chemical_formula_sum   'Tl2 B2 H20 C4 Br12 N8'
_cell_volume   749.48300710
_cell_formula_units_Z   2
loop_
 _symmetry_equiv_pos_site_id
 _symmetry_equiv_pos_as_xyz
  1  'x, y, z'
loop_
 _atom_site_type_symbol
 _atom_site_label
 _atom_site_symmetry_multiplicity
 _atom_site_fract_x
 _atom_site_fract_y
 _atom_site_fract_z
 _atom_site_occupancy
  C  C0  1  0.47898990  0.26405457  0.51255672  1
  C  C1  1  0.97898259  0.23596286  0.98744002  1
  C  C2  1  0.50271071  0.80295995  0.47459029  1
  C  C3  1  0.00269266  0.69704054  0.02539616  1
  N  N4  1  0.59749635  0.21578587  0.58868484  1
  N  N5  1  0.42944158  0.21711701  0.38205093  1
  N  N6  1  0.09755239  0.28424926  0.91133686  1
  N  N7  1  0.92944461  0.28288607  0.11796306  1
  N  N8  1  0.56652346  0.76367050  0.60357530  1
  N  N9  1  0.39023851  0.73904514  0.40584596  1
  N  N10  1  0.06648580  0.73633579  0.89640311  1
  N  N11  1  0.89020208  0.76096429  0.09417970  1
  H  H12  1  0.41572729  0.34832237  0.56281697  1
  H  H13  1  0.62695787  0.25684655  0.69004094  1
  H  H14  1  0.66625663  0.14035110  0.54794890  1
  H  H15  1  0.34899885  0.27385628  0.32202426  1
  H  H16  1  0.49278774  0.14774828  0.32353167  1
  H  H17  1  0.91573711  0.15174599  0.93713478  1
  H  H18  1  0.12698837  0.24321809  0.80996623  1
  H  H19  1  0.16628157  0.35961902  0.95212729  1
  H  H20  1  0.84898458  0.22614017  0.17795889  1
  H  H21  1  0.99277255  0.35221567  0.17650281  1
  H  H22  1  0.54871175  0.89443217  0.41697659  1
  H  H23  1  0.65136908  0.82238793  0.65079026  1
  H  H24  1  0.52535180  0.68014533  0.66443503  1
  H  H25  1  0.35294477  0.77464290  0.30185696  1
  H  H26  1  0.34363687  0.65021710  0.44798028  1
  H  H27  1  0.04870053  0.60556479  0.08300108  1
  H  H28  1  0.15133902  0.67761690  0.84918525  1
  H  H29  1  0.02529665  0.81986849  0.83556261  1
  H  H30  1  0.85293945  0.72536621  0.19815732  1
  H  H31  1  0.84360394  0.84980111  0.05204785  1
  B  B32  1  0.38729072  0.00170717  0.96847252  1
  B  B33  1  0.88732808  0.49826592  0.53152654  1
  Tl  Tl34  1  0.03622090  0.99721048  0.47853475  1
  Tl  Tl35  1  0.53623453  0.50276780  0.02147660  1
  Br  Br36  1  0.51786754  0.17232876  0.98669156  1
  Br  Br37  1  0.22074228  0.99796125  0.13113776  1
  Br  Br38  1  0.75157765  0.02969432  0.29656639  1
  Br  Br39  1  0.01795965  0.32764855  0.51333073  1
  Br  Br40  1  0.29758250  0.00189161  0.75510209  1
  Br  Br41  1  0.83178041  0.97524139  0.75173542  1
  Br  Br42  1  0.51875067  0.83360030  0.00485049  1
  Br  Br43  1  0.72079190  0.50199360  0.36886406  1
  Br  Br44  1  0.25158459  0.47031560  0.20342877  1
  Br  Br45  1  0.01874143  0.66637910  0.49514517  1
  Br  Br46  1  0.33181454  0.52478871  0.74827331  1
  Br  Br47  1  0.79760488  0.49809010  0.74489968  1
