# generated using pymatgen
data_BH10AuC2(Br3N2)2
_symmetry_space_group_name_H-M   'P 1'
_cell_length_a   8.28406435
_cell_length_b   10.41540636
_cell_length_c   8.51990041
_cell_angle_alpha   90.48832993
_cell_angle_beta   89.99985010
_cell_angle_gamma   89.99942446
_symmetry_Int_Tables_number   1
_chemical_formula_structural   BH10AuC2(Br3N2)2
_chemical_formula_sum   'B2 H20 Au2 C4 Br12 N8'
_cell_volume   735.08646571
_cell_formula_units_Z   2
loop_
 _symmetry_equiv_pos_site_id
 _symmetry_equiv_pos_as_xyz
  1  'x, y, z'
loop_
 _atom_site_type_symbol
 _atom_site_label
 _atom_site_symmetry_multiplicity
 _atom_site_fract_x
 _atom_site_fract_y
 _atom_site_fract_z
 _atom_site_occupancy
  C  C0  1  0.50582571  0.29007720  0.51904350  1
  C  C1  1  0.00586871  0.20992243  0.98095079  1
  C  C2  1  0.51487593  0.79435585  0.50329734  1
  C  C3  1  0.01484719  0.70565395  0.99670863  1
  N  N4  1  0.60051785  0.23486822  0.62187876  1
  N  N5  1  0.42178349  0.23271556  0.40821441  1
  N  N6  1  0.10056477  0.26514924  0.87813380  1
  N  N7  1  0.92180706  0.26726633  0.09178118  1
  N  N8  1  0.59218000  0.74605124  0.62318624  1
  N  N9  1  0.40212708  0.73432907  0.42209405  1
  N  N10  1  0.09215792  0.75396458  0.87682713  1
  N  N11  1  0.90209424  0.76567768  0.07791218  1
  H  H12  1  0.49262593  0.39401275  0.52900665  1
  H  H13  1  0.65894632  0.29317422  0.70139796  1
  H  H14  1  0.62623015  0.13881656  0.62434320  1
  H  H15  1  0.35525198  0.28836551  0.33287982  1
  H  H16  1  0.41531214  0.13549228  0.39814958  1
  H  H17  1  0.99268492  0.10598719  0.97096974  1
  H  H18  1  0.15900646  0.20685386  0.79860996  1
  H  H19  1  0.12626611  0.36120273  0.87568661  1
  H  H20  1  0.85527159  0.21160507  0.16709925  1
  H  H21  1  0.91532034  0.36448844  0.10185925  1
  H  H22  1  0.55124712  0.89001363  0.46525009  1
  H  H23  1  0.67409149  0.80419317  0.68220464  1
  H  H24  1  0.56003175  0.65917353  0.66977752  1
  H  H25  1  0.34589006  0.78018976  0.33248006  1
  H  H26  1  0.35749026  0.64737203  0.45727609  1
  H  H27  1  0.05121454  0.60999239  0.03474984  1
  H  H28  1  0.17407486  0.69582495  0.81780887  1
  H  H29  1  0.06001133  0.84084365  0.83024095  1
  H  H30  1  0.84585103  0.71981220  0.16751899  1
  H  H31  1  0.85746346  0.85264016  0.04273888  1
  B  B32  1  0.40306563  0.98006919  0.06179465  1
  B  B33  1  0.90306396  0.51992101  0.43820785  1
  Au  Au34  1  0.99788319  0.02219538  0.50459218  1
  Au  Au35  1  0.49788800  0.47780075  0.99540955  1
  Br  Br36  1  0.49158590  0.14069809  0.00329891  1
  Br  Br37  1  0.21299574  0.98239492  0.19293921  1
  Br  Br38  1  0.77154281  0.03072143  0.31604861  1
  Br  Br39  1  0.99158967  0.35929481  0.49671256  1
  Br  Br40  1  0.25245654  0.01635082  0.65594113  1
  Br  Br41  1  0.80404224  0.97324538  0.79026235  1
  Br  Br42  1  0.49196276  0.81587943  0.01351439  1
  Br  Br43  1  0.71299153  0.51758789  0.30706889  1
  Br  Br44  1  0.27154423  0.46928114  0.18395141  1
  Br  Br45  1  0.99196109  0.68411192  0.48647462  1
  Br  Br46  1  0.30404874  0.52678290  0.70974559  1
  Br  Br47  1  0.75246550  0.48364243  0.84406691  1
