# generated using pymatgen
data_BH10IrC2(Br3N2)2
_symmetry_space_group_name_H-M   'P 1'
_cell_length_a   8.18585423
_cell_length_b   10.05126448
_cell_length_c   8.19461600
_cell_angle_alpha   89.95215384
_cell_angle_beta   89.99661185
_cell_angle_gamma   90.00031206
_symmetry_Int_Tables_number   1
_chemical_formula_structural   BH10IrC2(Br3N2)2
_chemical_formula_sum   'B2 H20 Ir2 C4 Br12 N8'
_cell_volume   674.23790140
_cell_formula_units_Z   2
loop_
 _symmetry_equiv_pos_site_id
 _symmetry_equiv_pos_as_xyz
  1  'x, y, z'
loop_
 _atom_site_type_symbol
 _atom_site_label
 _atom_site_symmetry_multiplicity
 _atom_site_fract_x
 _atom_site_fract_y
 _atom_site_fract_z
 _atom_site_occupancy
  C  C0  1  0.49694448  0.29521291  0.49680095  1
  C  C1  1  0.99698919  0.20482272  0.00317703  1
  C  C2  1  0.50331594  0.79481746  0.50623087  1
  C  C3  1  0.00325786  0.70519074  0.99376741  1
  N  N4  1  0.59491014  0.23767456  0.60167044  1
  N  N5  1  0.40175169  0.23553378  0.39138547  1
  N  N6  1  0.09495087  0.26233981  0.89835881  1
  N  N7  1  0.90176345  0.26451382  0.10863316  1
  N  N8  1  0.60858269  0.73534627  0.60213992  1
  N  N9  1  0.39535595  0.73742646  0.41141639  1
  N  N10  1  0.10851284  0.76468048  0.89783415  1
  N  N11  1  0.89530620  0.76256976  0.08860452  1
  H  H12  1  0.49404032  0.40339695  0.49734028  1
  H  H13  1  0.66065388  0.29781599  0.67918772  1
  H  H14  1  0.61586231  0.13751399  0.60644444  1
  H  H15  1  0.33361241  0.29469113  0.31476363  1
  H  H16  1  0.38563656  0.13489197  0.38531615  1
  H  H17  1  0.99404195  0.09663616  0.00263161  1
  H  H18  1  0.16070861  0.20221129  0.82082310  1
  H  H19  1  0.11595021  0.36250317  0.89358120  1
  H  H20  1  0.83360575  0.20534867  0.18522060  1
  H  H21  1  0.88568011  0.36515627  0.11470209  1
  H  H22  1  0.50595529  0.90309402  0.50532254  1
  H  H23  1  0.68869405  0.79482307  0.66568532  1
  H  H24  1  0.61146038  0.63507886  0.62365160  1
  H  H25  1  0.31823640  0.79812892  0.34567315  1
  H  H26  1  0.38895960  0.63718345  0.39107305  1
  H  H27  1  0.00590413  0.59691831  0.99467339  1
  H  H28  1  0.18863131  0.70520928  0.83428477  1
  H  H29  1  0.11137675  0.86494787  0.87634431  1
  H  H30  1  0.81819079  0.70185934  0.15435035  1
  H  H31  1  0.88888917  0.86280966  0.10895289  1
  B  B32  1  0.48633947  0.01896102  0.00698443  1
  B  B33  1  0.98667726  0.48093497  0.49328687  1
  Ir  Ir34  1  0.00340180  0.01799644  0.49822482  1
  Ir  Ir35  1  0.50337902  0.48201231  0.00171480  1
  Br  Br36  1  0.49580456  0.20526605  0.00151417  1
  Br  Br37  1  0.18020735  0.98364593  0.25396204  1
  Br  Br38  1  0.75675849  0.01353157  0.31869661  1
  Br  Br39  1  0.99592450  0.29462385  0.49857174  1
  Br  Br40  1  0.24910402  0.01915597  0.67821550  1
  Br  Br41  1  0.82384184  0.98984898  0.74074365  1
  Br  Br42  1  0.50047802  0.83562195  0.00178923  1
  Br  Br43  1  0.68017317  0.51628916  0.24596162  1
  Br  Br44  1  0.25674119  0.48650065  0.18126507  1
  Br  Br45  1  0.00051825  0.66428759  0.49819094  1
  Br  Br46  1  0.32383404  0.51020692  0.75920252  1
  Br  Br47  1  0.74910507  0.48083247  0.82173943  1
