# generated using pymatgen
data_HfBH10C2(Br3N2)2
_symmetry_space_group_name_H-M   'P 1'
_cell_length_a   7.55061952
_cell_length_b   11.94517799
_cell_length_c   8.48115481
_cell_angle_alpha   90.06115163
_cell_angle_beta   87.88707877
_cell_angle_gamma   89.90040834
_symmetry_Int_Tables_number   1
_chemical_formula_structural   HfBH10C2(Br3N2)2
_chemical_formula_sum   'Hf2 B2 H20 C4 Br12 N8'
_cell_volume   764.42325950
_cell_formula_units_Z   2
loop_
 _symmetry_equiv_pos_site_id
 _symmetry_equiv_pos_as_xyz
  1  'x, y, z'
loop_
 _atom_site_type_symbol
 _atom_site_label
 _atom_site_symmetry_multiplicity
 _atom_site_fract_x
 _atom_site_fract_y
 _atom_site_fract_z
 _atom_site_occupancy
  C  C0  1  0.42094675  0.27789078  0.43162353  1
  C  C1  1  0.05774491  0.22364229  0.04568775  1
  C  C2  1  0.36488432  0.82226828  0.51871773  1
  C  C3  1  0.16778279  0.69027121  0.88928210  1
  N  N4  1  0.54800306  0.24519353  0.52795303  1
  N  N5  1  0.34390839  0.21819452  0.32599859  1
  N  N6  1  0.21740331  0.26745079  0.03981642  1
  N  N7  1  0.98144829  0.19095505  0.17934347  1
  N  N8  1  0.48986243  0.74803891  0.55140244  1
  N  N9  1  0.21202328  0.79980919  0.45817539  1
  N  N10  1  0.09037197  0.77802914  0.94164254  1
  N  N11  1  0.91468199  0.77764656  0.24855047  1
  H  H12  1  0.37719596  0.36477851  0.44760412  1
  H  H13  1  0.60497982  0.30167508  0.59975339  1
  H  H14  1  0.60930723  0.16948892  0.51166442  1
  H  H15  1  0.45308405  0.42938308  0.10374080  1
  H  H16  1  0.39281985  0.13778078  0.32017196  1
  H  H17  1  0.98712082  0.21161655  0.93708623  1
  H  H18  1  0.26705172  0.30416116  0.93955750  1
  H  H19  1  0.28602118  0.26753269  0.14829249  1
  H  H20  1  0.86607206  0.14590547  0.18446480  1
  H  H21  1  0.04982827  0.19864524  0.28124515  1
  H  H22  1  0.39678591  0.90921100  0.54621448  1
  H  H23  1  0.60099727  0.77482320  0.60576205  1
  H  H24  1  0.47470207  0.66410980  0.53504343  1
  H  H25  1  0.10243183  0.00258138  0.36941308  1
  H  H26  1  0.19946994  0.71656556  0.42756142  1
  H  H27  1  0.18055632  0.61826668  0.96822878  1
  H  H28  1  0.22299927  0.67988985  0.76845125  1
  H  H29  1  0.08217825  0.83998780  0.85772471  1
  H  H30  1  0.81784044  0.71841024  0.24320488  1
  H  H31  1  0.97990524  0.78275847  0.13703917  1
  B  B32  1  0.39366425  0.07451404  0.90196081  1
  B  B33  1  0.94410946  0.49453749  0.43020129  1
  Hf  Hf34  1  0.95617273  0.88351485  0.42043995  1
  Hf  Hf35  1  0.61496011  0.51707643  0.99995266  1
  Br  Br36  1  0.61090058  0.15755743  0.90964781  1
  Br  Br37  1  0.31889682  0.98115947  0.07129881  1
  Br  Br38  1  0.69559934  0.01433039  0.33138774  1
  Br  Br39  1  0.97093180  0.34625816  0.53614058  1
  Br  Br40  1  0.25250318  0.08337587  0.71791063  1
  Br  Br41  1  0.81638283  0.90294348  0.70414804  1
  Br  Br42  1  0.56599634  0.72041936  0.02535088  1
  Br  Br43  1  0.69645050  0.48156696  0.30823506  1
  Br  Br44  1  0.15126014  0.52515827  0.28565486  1
  Br  Br45  1  0.89606227  0.61979688  0.58450935  1
  Br  Br46  1  0.44199140  0.47171231  0.75945400  1
  Br  Br47  1  0.91372864  0.44917985  0.92339471  1
