# generated using pymatgen
data_BaBH10C2(Br3N2)2
_symmetry_space_group_name_H-M   'P 1'
_cell_length_a   8.28348472
_cell_length_b   11.26496398
_cell_length_c   8.30945652
_cell_angle_alpha   89.45461733
_cell_angle_beta   86.62822398
_cell_angle_gamma   92.87899798
_symmetry_Int_Tables_number   1
_chemical_formula_structural   BaBH10C2(Br3N2)2
_chemical_formula_sum   'Ba2 B2 H20 C4 Br12 N8'
_cell_volume   773.00191367
_cell_formula_units_Z   2
loop_
 _symmetry_equiv_pos_site_id
 _symmetry_equiv_pos_as_xyz
  1  'x, y, z'
loop_
 _atom_site_type_symbol
 _atom_site_label
 _atom_site_symmetry_multiplicity
 _atom_site_fract_x
 _atom_site_fract_y
 _atom_site_fract_z
 _atom_site_occupancy
  C  C0  1  0.48580623  0.27868824  0.51740276  1
  C  C1  1  0.95554680  0.25263086  0.98238625  1
  C  C2  1  0.53170575  0.76453729  0.48333172  1
  C  C3  1  0.98769003  0.69858550  0.01424167  1
  N  N4  1  0.60840225  0.24122501  0.59207780  1
  N  N5  1  0.42394820  0.22592405  0.39090502  1
  N  N6  1  0.08139658  0.31033764  0.91051760  1
  N  N7  1  0.90928747  0.26428658  0.13516472  1
  N  N8  1  0.63619674  0.73158047  0.58461103  1
  N  N9  1  0.42327359  0.69188909  0.41836475  1
  N  N10  1  0.04756097  0.72174138  0.86824110  1
  N  N11  1  0.86717808  0.75626691  0.08714736  1
  H  H12  1  0.42731847  0.35730461  0.56479426  1
  H  H13  1  0.65679842  0.29436810  0.67848940  1
  H  H14  1  0.67352442  0.17182628  0.54838594  1
  H  H15  1  0.34633158  0.27487028  0.32812868  1
  H  H16  1  0.49006150  0.16456696  0.32861664  1
  H  H17  1  0.88515514  0.18958673  0.91145890  1
  H  H18  1  0.09592395  0.30790626  0.78710185  1
  H  H19  1  0.15107724  0.37080793  0.97148972  1
  H  H20  1  0.82453558  0.20468292  0.18923407  1
  H  H21  1  0.97210145  0.32014919  0.20836937  1
  H  H22  1  0.54038251  0.85804995  0.44516368  1
  H  H23  1  0.71605222  0.79509363  0.62827936  1
  H  H24  1  0.64301498  0.64477521  0.62162636  1
  H  H25  1  0.32342796  0.72859715  0.37304518  1
  H  H26  1  0.39592903  0.61025513  0.47283755  1
  H  H27  1  0.03685096  0.62611736  0.08230471  1
  H  H28  1  0.13103021  0.66643122  0.81488441  1
  H  H29  1  0.00413495  0.78947847  0.80139512  1
  H  H30  1  0.86484195  0.75274262  0.21139098  1
  H  H31  1  0.83448319  0.83426228  0.03513229  1
  B  B32  1  0.35986643  0.00593873  0.96680597  1
  B  B33  1  0.94719894  0.49962343  0.51075604  1
  Ba  Ba34  1  0.06793581  0.01887844  0.47824902  1
  Ba  Ba35  1  0.53562517  0.58542179  0.04006440  1
  Br  Br36  1  0.48707402  0.15978443  0.98918167  1
  Br  Br37  1  0.13432159  0.01438394  0.07037757  1
  Br  Br38  1  0.73042777  0.02993538  0.32618939  1
  Br  Br39  1  0.01293967  0.28405951  0.53076400  1
  Br  Br40  1  0.35243923  0.96371337  0.72861016  1
  Br  Br41  1  0.82506255  0.95539181  0.77558908  1
  Br  Br42  1  0.46143966  0.86752244  0.08031251  1
  Br  Br43  1  0.73856322  0.49059704  0.33503282  1
  Br  Br44  1  0.23835391  0.46044701  0.21876429  1
  Br  Br45  1  0.04192349  0.74935609  0.43392659  1
  Br  Br46  1  0.32043784  0.53246792  0.74689332  1
  Br  Br47  1  0.77544159  0.48297636  0.78206768  1
