# generated using pymatgen
data_BSbH10C2(Br3N2)2
_symmetry_space_group_name_H-M   'P 1'
_cell_length_a   8.07217716
_cell_length_b   10.98463108
_cell_length_c   8.16931663
_cell_angle_alpha   91.05558480
_cell_angle_beta   89.97914736
_cell_angle_gamma   89.98717869
_symmetry_Int_Tables_number   1
_chemical_formula_structural   BSbH10C2(Br3N2)2
_chemical_formula_sum   'B2 Sb2 H20 C4 Br12 N8'
_cell_volume   724.24939350
_cell_formula_units_Z   2
loop_
 _symmetry_equiv_pos_site_id
 _symmetry_equiv_pos_as_xyz
  1  'x, y, z'
loop_
 _atom_site_type_symbol
 _atom_site_label
 _atom_site_symmetry_multiplicity
 _atom_site_fract_x
 _atom_site_fract_y
 _atom_site_fract_z
 _atom_site_occupancy
  C  C0  1  0.49601887  0.29316946  0.49902826  1
  C  C1  1  0.99609079  0.20686188  0.00099950  1
  C  C2  1  0.50584265  0.78987790  0.50358599  1
  C  C3  1  0.00577354  0.71011456  0.99636929  1
  N  N4  1  0.59696397  0.23933423  0.60009814  1
  N  N5  1  0.39684769  0.23836179  0.39467659  1
  N  N6  1  0.09708749  0.26069194  0.89993263  1
  N  N7  1  0.89686850  0.26164385  0.10542972  1
  N  N8  1  0.60543785  0.73497529  0.60502922  1
  N  N9  1  0.40144722  0.73654233  0.40248594  1
  N  N10  1  0.10537744  0.76501339  0.89488543  1
  N  N11  1  0.90130514  0.76342225  0.09752692  1
  H  H12  1  0.49401819  0.39233349  0.50247075  1
  H  H13  1  0.67086735  0.29220703  0.67414714  1
  H  H14  1  0.60626010  0.14709456  0.60987780  1
  H  H15  1  0.32076502  0.29040971  0.32436862  1
  H  H16  1  0.39119145  0.14609070  0.37848583  1
  H  H17  1  0.99409034  0.10769831  0.99747812  1
  H  H18  1  0.17101270  0.20779443  0.82584026  1
  H  H19  1  0.10643543  0.35292955  0.89019274  1
  H  H20  1  0.82077201  0.20956399  0.17571163  1
  H  H21  1  0.89110976  0.35391258  0.12168527  1
  H  H22  1  0.51055435  0.88905354  0.50310227  1
  H  H23  1  0.68116898  0.78811953  0.67683117  1
  H  H24  1  0.61482473  0.64266166  0.61575122  1
  H  H25  1  0.32972309  0.79022287  0.33011263  1
  H  H26  1  0.38305904  0.64457697  0.39351067  1
  H  H27  1  0.01054819  0.61093668  0.99682910  1
  H  H28  1  0.18118916  0.71184495  0.82310176  1
  H  H29  1  0.11473322  0.85732410  0.88414433  1
  H  H30  1  0.82959844  0.70969606  0.16988882  1
  H  H31  1  0.88282140  0.85538455  0.10657856  1
  B  B32  1  0.47825314  0.97473464  0.05380487  1
  B  B33  1  0.97868722  0.52524027  0.44589978  1
  Sb  Sb34  1  0.99673761  0.00907988  0.49899445  1
  Sb  Sb35  1  0.49683128  0.49100294  0.00111632  1
  Br  Br36  1  0.49719152  0.25432258  1.00011674  1
  Br  Br37  1  0.24271893  0.98594841  0.20788704  1
  Br  Br38  1  0.71673903  0.01399418  0.27142395  1
  Br  Br39  1  0.99709456  0.24573607  0.50003531  1
  Br  Br40  1  0.26971185  0.01364936  0.70854440  1
  Br  Br41  1  0.78917579  0.98964934  0.75782029  1
  Br  Br42  1  0.50472588  0.79269578  0.00267258  1
  Br  Br43  1  0.74237134  0.51408463  0.29174997  1
  Br  Br44  1  0.21637243  0.48604990  0.22892972  1
  Br  Br45  1  0.00475840  0.70726407  0.49719737  1
  Br  Br46  1  0.28920716  0.51037614  0.74224835  1
  Br  Br47  1  0.76963912  0.48637066  0.79150731  1
