# generated using pymatgen
data_AlCuH12C2(I3N)2
_symmetry_space_group_name_H-M   'P 1'
_cell_length_a   9.15438736
_cell_length_b   10.32924234
_cell_length_c   8.90605832
_cell_angle_alpha   90.35110101
_cell_angle_beta   89.99932815
_cell_angle_gamma   90.00197118
_symmetry_Int_Tables_number   1
_chemical_formula_structural   AlCuH12C2(I3N)2
_chemical_formula_sum   'Al2 Cu2 H24 C4 I12 N4'
_cell_volume   842.12223167
_cell_formula_units_Z   2
loop_
 _symmetry_equiv_pos_site_id
 _symmetry_equiv_pos_as_xyz
  1  'x, y, z'
loop_
 _atom_site_type_symbol
 _atom_site_label
 _atom_site_symmetry_multiplicity
 _atom_site_fract_x
 _atom_site_fract_y
 _atom_site_fract_z
 _atom_site_occupancy
  C  C0  1  0.49495781  0.23355389  0.44149512  1
  C  C1  1  0.99485925  0.26647587  0.05850603  1
  C  C2  1  0.50834895  0.76069377  0.56022108  1
  C  C3  1  0.00848787  0.73929506  0.93981883  1
  N  N4  1  0.55393155  0.22763777  0.59665403  1
  N  N5  1  0.05376269  0.27230120  0.90331215  1
  N  N6  1  0.46840966  0.76090310  0.39874441  1
  N  N7  1  0.96850451  0.73917234  0.10128506  1
  H  H8  1  0.58615207  0.23925346  0.36255486  1
  H  H9  1  0.43138326  0.14579790  0.41871736  1
  H  H10  1  0.42455302  0.31896333  0.43160928  1
  H  H11  1  0.62864127  0.15223893  0.61360398  1
  H  H12  1  0.60787271  0.31243436  0.62729153  1
  H  H13  1  0.47102824  0.21626669  0.67475835  1
  H  H14  1  0.08608845  0.26093107  0.13741286  1
  H  H15  1  0.92454474  0.18101524  0.06852836  1
  H  H16  1  0.93119684  0.35419666  0.08119986  1
  H  H17  1  0.10777709  0.18752017  0.87275705  1
  H  H18  1  0.12840719  0.34773852  0.88624075  1
  H  H19  1  0.97082471  0.28352395  0.82522688  1
  H  H20  1  0.40869852  0.75654837  0.62774498  1
  H  H21  1  0.57520098  0.67517539  0.58316544  1
  H  H22  1  0.57080831  0.84874189  0.58598867  1
  H  H23  1  0.40047590  0.83773604  0.37100248  1
  H  H24  1  0.41279138  0.67656936  0.36464167  1
  H  H25  1  0.56094493  0.77040894  0.33212994  1
  H  H26  1  0.90886250  0.74335936  0.87226155  1
  H  H27  1  0.07531088  0.82483268  0.91682777  1
  H  H28  1  0.07099881  0.65126087  0.91414454  1
  H  H29  1  0.91279067  0.82347615  0.13529327  1
  H  H30  1  0.90063005  0.66229449  0.12907867  1
  H  H31  1  0.06101587  0.72979758  0.16793938  1
  Al  Al32  1  0.40622781  -0.00010546  0.98853964  1
  Al  Al33  1  0.90622216  0.50014732  0.51146540  1
  Cu  Cu34  1  0.86201708  0.91233341  0.53184851  1
  Cu  Cu35  1  0.36198527  0.58756657  0.96816079  1
  I  I36  1  0.52391734  0.21954620  0.02075768  1
  I  I37  1  0.22319791  0.98217024  0.20916392  1
  I  I38  1  0.75996549  0.97876378  0.28508610  1
  I  I39  1  0.02378208  0.28044625  0.47924396  1
  I  I40  1  0.26595645  0.01326637  0.73638359  1
  I  I41  1  0.81124078  0.02342389  0.77420370  1
  I  I42  1  0.54338313  0.78027089  0.97360519  1
  I  I43  1  0.72322053  0.51796283  0.29083982  1
  I  I44  1  0.26001600  0.52118614  0.21498013  1
  I  I45  1  0.04349586  0.71972364  0.52642168  1
  I  I46  1  0.31121202  0.47644291  0.72583209  1
  I  I47  1  0.76592312  0.48681888  0.76360820  1
