# generated using pymatgen
data_InBH10C2(Br3N2)2
_symmetry_space_group_name_H-M   'P 1'
_cell_length_a   8.69492207
_cell_length_b   9.88375133
_cell_length_c   8.67172888
_cell_angle_alpha   88.35743296
_cell_angle_beta   90.00159217
_cell_angle_gamma   90.00197619
_symmetry_Int_Tables_number   1
_chemical_formula_structural   InBH10C2(Br3N2)2
_chemical_formula_sum   'In2 B2 H20 C4 Br12 N8'
_cell_volume   744.92869637
_cell_formula_units_Z   2
loop_
 _symmetry_equiv_pos_site_id
 _symmetry_equiv_pos_as_xyz
  1  'x, y, z'
loop_
 _atom_site_type_symbol
 _atom_site_label
 _atom_site_symmetry_multiplicity
 _atom_site_fract_x
 _atom_site_fract_y
 _atom_site_fract_z
 _atom_site_occupancy
  C  C0  1  0.48403661  0.27320239  0.50827353  1
  C  C1  1  0.98402107  0.22680814  0.99172818  1
  C  C2  1  0.49956843  0.80263142  0.47667309  1
  C  C3  1  0.99957016  0.69735592  0.02332079  1
  N  N4  1  0.59721220  0.22389462  0.59243519  1
  N  N5  1  0.42635369  0.21715630  0.38525886  1
  N  N6  1  0.09722307  0.27612958  0.90759552  1
  N  N7  1  0.92632812  0.28282971  0.11473872  1
  N  N8  1  0.56893483  0.75980583  0.60270957  1
  N  N9  1  0.38901507  0.73858394  0.40506505  1
  N  N10  1  0.06894496  0.74019212  0.89731059  1
  N  N11  1  0.88898837  0.76138914  0.09491712  1
  H  H12  1  0.43088870  0.36694400  0.54627872  1
  H  H13  1  0.63537206  0.27665871  0.68416954  1
  H  H14  1  0.65687979  0.13844232  0.56571713  1
  H  H15  1  0.34779626  0.27224652  0.32073231  1
  H  H16  1  0.47962399  0.13752682  0.33478750  1
  H  H17  1  0.93087274  0.13307631  0.95368341  1
  H  H18  1  0.13538955  0.22338460  0.81586049  1
  H  H19  1  0.15689691  0.36156884  0.93436806  1
  H  H20  1  0.84776139  0.22773095  0.17924126  1
  H  H21  1  0.97959725  0.36245567  0.16524209  1
  H  H22  1  0.53991776  0.89780903  0.42368724  1
  H  H23  1  0.65240567  0.81894231  0.65145721  1
  H  H24  1  0.53350913  0.67329751  0.66080058  1
  H  H25  1  0.34514509  0.77981989  0.30528154  1
  H  H26  1  0.34534128  0.64778613  0.44322931  1
  H  H27  1  0.03991743  0.60217790  0.07632192  1
  H  H28  1  0.15242463  0.68106682  0.84856629  1
  H  H29  1  0.03352113  0.82669654  0.83921288  1
  H  H30  1  0.84510912  0.72013997  0.19468358  1
  H  H31  1  0.84531564  0.85217265  0.05673717  1
  B  B32  1  0.39138256  0.99922298  0.96951479  1
  B  B33  1  0.89139729  0.50080392  0.53049071  1
  In  In34  1  0.02583216  0.00191720  0.48091743  1
  In  In35  1  0.52584335  0.49811192  0.01907568  1
  Br  Br36  1  0.52169712  0.16906921  0.98907806  1
  Br  Br37  1  0.22743029  0.99439731  0.13821825  1
  Br  Br38  1  0.75283653  0.02789285  0.30170252  1
  Br  Br39  1  0.02169868  0.33095838  0.51093523  1
  Br  Br40  1  0.29717755  0.00244024  0.75459152  1
  Br  Br41  1  0.83107741  0.97749818  0.74748416  1
  Br  Br42  1  0.52058926  0.82949495  0.00132546  1
  Br  Br43  1  0.72744084  0.50561867  0.36178053  1
  Br  Br44  1  0.25285380  0.47209652  0.19830025  1
  Br  Br45  1  0.02061266  0.67053112  0.49867939  1
  Br  Br46  1  0.33107782  0.52249963  0.75251743  1
  Br  Br47  1  0.79718992  0.49758731  0.74540892  1
