# generated using pymatgen
data_AgBH10C2(Br3N2)2
_symmetry_space_group_name_H-M   'P 1'
_cell_length_a   8.31319964
_cell_length_b   10.28604387
_cell_length_c   8.49859357
_cell_angle_alpha   90.30764574
_cell_angle_beta   89.98936936
_cell_angle_gamma   90.05573443
_symmetry_Int_Tables_number   1
_chemical_formula_structural   AgBH10C2(Br3N2)2
_chemical_formula_sum   'Ag2 B2 H20 C4 Br12 N8'
_cell_volume   726.70336273
_cell_formula_units_Z   2
loop_
 _symmetry_equiv_pos_site_id
 _symmetry_equiv_pos_as_xyz
  1  'x, y, z'
loop_
 _atom_site_type_symbol
 _atom_site_label
 _atom_site_symmetry_multiplicity
 _atom_site_fract_x
 _atom_site_fract_y
 _atom_site_fract_z
 _atom_site_occupancy
  C  C0  1  0.51098095  0.28838708  0.52387852  1
  C  C1  1  0.01137571  0.21106402  0.97643644  1
  C  C2  1  0.50941433  0.79144534  0.49079573  1
  C  C3  1  0.00894173  0.70869229  0.00938516  1
  N  N4  1  0.60920339  0.23575900  0.62612118  1
  N  N5  1  0.43741705  0.22855220  0.40771167  1
  N  N6  1  0.10832638  0.26475252  0.87377738  1
  N  N7  1  0.93460016  0.27045222  0.09092978  1
  N  N8  1  0.58162533  0.74688256  0.61645008  1
  N  N9  1  0.39351391  0.73067914  0.41467914  1
  N  N10  1  0.08198240  0.75312394  0.88403760  1
  N  N11  1  0.89310154  0.76981169  0.08504706  1
  H  H12  1  0.48483201  0.39156055  0.53950664  1
  H  H13  1  0.66265304  0.29618995  0.70782601  1
  H  H14  1  0.64228586  0.13979536  0.62555490  1
  H  H15  1  0.36718995  0.28241470  0.33260238  1
  H  H16  1  0.45269414  0.13187472  0.38691568  1
  H  H17  1  0.98948858  0.10705542  0.96294141  1
  H  H18  1  0.16382977  0.20465573  0.79307743  1
  H  H19  1  0.13831969  0.36142547  0.87279490  1
  H  H20  1  0.86578860  0.21571966  0.16654389  1
  H  H21  1  0.94375745  0.36806024  0.10841922  1
  H  H22  1  0.55358162  0.88325808  0.44278900  1
  H  H23  1  0.66518548  0.80543084  0.67255930  1
  H  H24  1  0.54367466  0.66318378  0.67030247  1
  H  H25  1  0.34572809  0.77026684  0.31585640  1
  H  H26  1  0.34530880  0.64540717  0.45455998  1
  H  H27  1  0.05220124  0.61673276  0.05753902  1
  H  H28  1  0.16536295  0.69435842  0.82809364  1
  H  H29  1  0.04498236  0.83696643  0.83009295  1
  H  H30  1  0.84439900  0.73033029  0.18354938  1
  H  H31  1  0.84550909  0.85505769  0.04462964  1
  B  B32  1  0.39798986  0.98776755  0.06105680  1
  B  B33  1  0.89667038  0.51237467  0.43909686  1
  Ag  Ag34  1  0.98685342  0.01494286  0.52063091  1
  Ag  Ag35  1  0.48448915  0.48516116  0.98018911  1
  Br  Br36  1  0.49284275  0.14808800  0.00283196  1
  Br  Br37  1  0.20937230  0.98973456  0.19278416  1
  Br  Br38  1  0.77258250  0.03017500  0.30488213  1
  Br  Br39  1  0.99088112  0.35214943  0.49786531  1
  Br  Br40  1  0.26054812  0.01279277  0.65668822  1
  Br  Br41  1  0.80136115  0.97313955  0.78148628  1
  Br  Br42  1  0.48588258  0.82166243  0.00940922  1
  Br  Br43  1  0.70780982  0.51023372  0.30778872  1
  Br  Br44  1  0.27097913  0.46906014  0.19634137  1
  Br  Br45  1  0.98502909  0.67852705  0.49040998  1
  Br  Br46  1  0.30055825  0.52711851  0.71837337  1
  Br  Br47  1  0.75891451  0.48778949  0.84486638  1
