# generated using pymatgen
data_BH10RhC2(Br3N2)2
_symmetry_space_group_name_H-M   'P 1'
_cell_length_a   8.02088878
_cell_length_b   10.65021911
_cell_length_c   8.02815423
_cell_angle_alpha   88.86409606
_cell_angle_beta   89.99397245
_cell_angle_gamma   89.99542026
_symmetry_Int_Tables_number   1
_chemical_formula_structural   BH10RhC2(Br3N2)2
_chemical_formula_sum   'B2 H20 Rh2 C4 Br12 N8'
_cell_volume   685.66406225
_cell_formula_units_Z   2
loop_
 _symmetry_equiv_pos_site_id
 _symmetry_equiv_pos_as_xyz
  1  'x, y, z'
loop_
 _atom_site_type_symbol
 _atom_site_label
 _atom_site_symmetry_multiplicity
 _atom_site_fract_x
 _atom_site_fract_y
 _atom_site_fract_z
 _atom_site_occupancy
  C  C0  1  0.50146099  0.29621495  0.52973336  1
  C  C1  1  1.00153487  0.20376836  0.97029152  1
  C  C2  1  0.51244620  0.78606563  0.51101730  1
  C  C3  1  0.01244641  0.71395837  0.98897132  1
  N  N4  1  0.59770338  0.24111813  0.64122915  1
  N  N5  1  0.40567548  0.23982931  0.42227787  1
  N  N6  1  0.09776946  0.25889920  0.85880064  1
  N  N7  1  0.90565140  0.26012693  0.07773199  1
  N  N8  1  0.61310897  0.74082068  0.62564958  1
  N  N9  1  0.39381863  0.72273253  0.43709626  1
  N  N10  1  0.11307337  0.75920169  0.87429527  1
  N  N11  1  0.89380183  0.77729143  0.06292152  1
  H  H12  1  0.49903017  0.39853724  0.52775759  1
  H  H13  1  0.66553086  0.29785979  0.71799395  1
  H  H14  1  0.61982304  0.14632383  0.64626701  1
  H  H15  1  0.33814841  0.29507087  0.33967717  1
  H  H16  1  0.38833565  0.14488074  0.42718425  1
  H  H17  1  0.99921318  0.10144980  0.97228625  1
  H  H18  1  0.16565645  0.20216640  0.78204818  1
  H  H19  1  0.11980023  0.35369601  0.85374569  1
  H  H20  1  0.83814941  0.20485902  0.16032644  1
  H  H21  1  0.88819598  0.35506089  0.07279765  1
  H  H22  1  0.53219048  0.88365837  0.47160772  1
  H  H23  1  0.70265673  0.80054957  0.67068675  1
  H  H24  1  0.60671459  0.65094426  0.67388802  1
  H  H25  1  0.32358680  0.76641557  0.34755632  1
  H  H26  1  0.37009326  0.62991987  0.46037316  1
  H  H27  1  0.03223367  0.61637329  0.02839143  1
  H  H28  1  0.20265039  0.69947875  0.82925353  1
  H  H29  1  0.10664267  0.84907481  0.82604867  1
  H  H30  1  0.82359918  0.73361068  0.15249043  1
  H  H31  1  0.87003535  0.87009806  0.03963511  1
  B  B32  1  0.38779802  0.99204591  0.08880792  1
  B  B33  1  0.88781391  0.50794565  0.41116066  1
  Rh  Rh34  1  0.02385861  0.01233482  0.47663540  1
  Rh  Rh35  1  0.52391925  0.48766823  0.02339846  1
  Br  Br36  1  0.45825795  0.15818489  0.03721049  1
  Br  Br37  1  0.18729035  0.95322229  0.22744789  1
  Br  Br38  1  0.76995456  0.02233830  0.30225363  1
  Br  Br39  1  0.95825571  0.34180072  0.46279415  1
  Br  Br40  1  0.26934371  0.01047575  0.66419465  1
  Br  Br41  1  0.83951100  0.98728867  0.71942485  1
  Br  Br42  1  0.49346199  0.84228896  0.01431369  1
  Br  Br43  1  0.68730646  0.54677604  0.27255821  1
  Br  Br44  1  0.27002307  0.47765514  0.19782512  1
  Br  Br45  1  0.99346874  0.65770433  0.48560588  1
  Br  Br46  1  0.33956898  0.51274659  0.78064533  1
  Br  Br47  1  0.76940951  0.48953167  0.83579736  1
