# generated using pymatgen
data_ZrBH10C2(Br3N2)2
_symmetry_space_group_name_H-M   'P 1'
_cell_length_a   7.59573082
_cell_length_b   10.04212996
_cell_length_c   10.12909263
_cell_angle_alpha   90.74530794
_cell_angle_beta   95.62019774
_cell_angle_gamma   88.42489920
_symmetry_Int_Tables_number   1
_chemical_formula_structural   ZrBH10C2(Br3N2)2
_chemical_formula_sum   'Zr2 B2 H20 C4 Br12 N8'
_cell_volume   768.57411545
_cell_formula_units_Z   2
loop_
 _symmetry_equiv_pos_site_id
 _symmetry_equiv_pos_as_xyz
  1  'x, y, z'
loop_
 _atom_site_type_symbol
 _atom_site_label
 _atom_site_symmetry_multiplicity
 _atom_site_fract_x
 _atom_site_fract_y
 _atom_site_fract_z
 _atom_site_occupancy
  C  C0  1  0.48705679  0.20459538  0.46547533  1
  C  C1  1  0.11320702  0.31252200  0.07813216  1
  C  C2  1  0.37379441  0.78425278  0.48191209  1
  C  C3  1  0.94510052  0.84151349  0.95659171  1
  N  N4  1  0.45591179  0.54111444  0.40871106  1
  N  N5  1  0.46842832  0.24079919  0.34476719  1
  N  N6  1  0.23039192  0.32040612  0.99000756  1
  N  N7  1  0.14757237  0.31920679  0.20694079  1
  N  N8  1  0.49668116  0.78651295  0.58488163  1
  N  N9  1  0.26038268  0.88717940  0.46171410  1
  N  N10  1  0.91603022  0.71714957  0.95113740  1
  N  N11  1  0.73093435  0.50478737  0.05845836  1
  H  H12  1  0.44376917  0.45731229  0.35008535  1
  H  H13  1  0.83686487  0.24738894  0.73426166  1
  H  H14  1  0.43125051  0.26759834  0.54116438  1
  H  H15  1  0.52916489  0.17490862  0.28364353  1
  H  H16  1  0.55965109  0.11337239  0.49948864  1
  H  H17  1  0.27653885  0.31709012  0.25311814  1
  H  H18  1  0.16833249  0.30538272  0.89609680  1
  H  H19  1  0.83775607  0.45595785  0.02313006  1
  H  H20  1  0.04407203  0.33417620  0.26672096  1
  H  H21  1  0.97476539  0.29544536  0.04142573  1
  H  H22  1  0.51622385  0.87059313  0.64184173  1
  H  H23  1  0.58705302  0.71062591  0.60187328  1
  H  H24  1  0.57480044  0.53373167  0.46580130  1
  H  H25  1  0.18998332  0.87366586  0.37005913  1
  H  H26  1  0.41724076  0.48694909  0.11061123  1
  H  H27  1  0.75054609  0.60300450  0.03149007  1
  H  H28  1  0.00289270  0.66789278  0.89369242  1
  H  H29  1  0.04934002  0.88867738  0.90709482  1
  H  H30  1  0.75152800  0.49831137  0.16232226  1
  H  H31  1  0.86346249  0.90763608  0.01420951  1
  B  B32  1  0.44259326  0.86273773  0.09823972  1
  B  B33  1  0.35247844  0.65443053  0.38854120  1
  Zr  Zr34  1  0.05150408  0.96372499  0.58118163  1
  Zr  Zr35  1  0.49278145  0.39247494  0.97002431  1
  Br  Br36  1  0.65972896  0.17467305  0.03169474  1
  Br  Br37  1  0.27348584  0.99901458  0.13408038  1
  Br  Br38  1  0.63830445  0.82087399  0.22473161  1
  Br  Br39  1  0.92007527  0.08067741  0.37723474  1
  Br  Br40  1  0.27520623  0.08033555  0.74141428  1
  Br  Br41  1  0.78347447  0.03969525  0.71815255  1
  Br  Br42  1  0.42290570  0.77020725  0.93149894  1
  Br  Br43  1  0.84809048  0.44089613  0.37766253  1
  Br  Br44  1  0.16107653  0.66344570  0.24663645  1
  Br  Br45  1  0.97386769  0.72302927  0.61245241  1
  Br  Br46  1  0.39159367  0.47423049  0.73708775  1
  Br  Br47  1  0.88212520  0.38985600  0.75261116  1
