# generated using pymatgen
data_YBH10C2(Br3N2)2
_symmetry_space_group_name_H-M   'P 1'
_cell_length_a   8.13524764
_cell_length_b   11.08457391
_cell_length_c   8.08170714
_cell_angle_alpha   90.18120697
_cell_angle_beta   90.00266645
_cell_angle_gamma   89.99458547
_symmetry_Int_Tables_number   1
_chemical_formula_structural   YBH10C2(Br3N2)2
_chemical_formula_sum   'Y2 B2 H20 C4 Br12 N8'
_cell_volume   728.77038452
_cell_formula_units_Z   2
loop_
 _symmetry_equiv_pos_site_id
 _symmetry_equiv_pos_as_xyz
  1  'x, y, z'
loop_
 _atom_site_type_symbol
 _atom_site_label
 _atom_site_symmetry_multiplicity
 _atom_site_fract_x
 _atom_site_fract_y
 _atom_site_fract_z
 _atom_site_occupancy
  C  C0  1  0.49765068  0.28895930  0.49736674  1
  C  C1  1  0.99760420  0.21107620  0.00266899  1
  C  C2  1  0.50411909  0.79027517  0.50310178  1
  C  C3  1  0.00397334  0.70963355  0.99692104  1
  N  N4  1  0.60073464  0.23623684  0.59858627  1
  N  N5  1  0.39989951  0.23404050  0.39266932  1
  N  N6  1  0.10070457  0.26380431  0.90146228  1
  N  N7  1  0.89986808  0.26598449  0.10736666  1
  N  N8  1  0.60539814  0.73639655  0.60479240  1
  N  N9  1  0.39761097  0.73632233  0.40620288  1
  N  N10  1  0.10538206  0.76355257  0.89523573  1
  N  N11  1  0.89744296  0.76359062  0.09367260  1
  H  H12  1  0.49241333  0.38723707  0.50076254  1
  H  H13  1  0.67250813  0.28858222  0.67357669  1
  H  H14  1  0.61193715  0.14485655  0.60953985  1
  H  H15  1  0.32324527  0.28518022  0.32137713  1
  H  H16  1  0.39726608  0.14277903  0.37570664  1
  H  H17  1  0.99236498  0.11279570  -0.00077406  1
  H  H18  1  0.17246765  0.21146652  0.82646824  1
  H  H19  1  0.11190533  0.35517682  0.89055445  1
  H  H20  1  0.82320755  0.21484256  0.17863636  1
  H  H21  1  0.89722463  0.35724923  0.12436271  1
  H  H22  1  0.50932680  0.88841661  0.49818546  1
  H  H23  1  0.68200060  0.78930782  0.67472239  1
  H  H24  1  0.61198456  0.64491438  0.61972499  1
  H  H25  1  0.32501219  0.78881598  0.33219694  1
  H  H26  1  0.38244149  0.64486989  0.40012445  1
  H  H27  1  0.00925615  0.61150907  1.00179214  1
  H  H28  1  0.18202282  0.71061980  0.82541361  1
  H  H29  1  0.11190037  0.85500059  0.88034498  1
  H  H30  1  0.82478990  0.71107961  0.16764214  1
  H  H31  1  0.88219271  0.85503941  0.09974680  1
  B  B32  1  0.47954764  0.95253172  0.00580188  1
  B  B33  1  0.98006698  0.54759709  0.49413694  1
  Y  Y34  1  -0.00020084  0.01480307  0.49930001  1
  Y  Y35  1  0.49981914  0.48528918  0.00072766  1
  Br  Br36  1  0.50255754  0.24826359  0.99694917  1
  Br  Br37  1  0.20568528  0.97594342  0.22475385  1
  Br  Br38  1  0.72874918  0.00828602  0.28695106  1
  Br  Br39  1  1.00259092  0.25182369  0.50309112  1
  Br  Br40  1  0.27499191  0.00594373  0.70715145  1
  Br  Br41  1  0.79593504  0.97914641  0.77067312  1
  Br  Br42  1  0.49954319  0.76631401  0.00355283  1
  Br  Br43  1  0.70569471  0.52406848  0.27527189  1
  Br  Br44  1  0.22871222  0.49175022  0.21305641  1
  Br  Br45  1  -0.00035054  0.73378948  0.49636351  1
  Br  Br46  1  0.29588516  0.52086333  0.72932359  1
  Br  Br47  1  0.77493586  0.49403805  0.79284908  1
