# generated using pymatgen
data_SrBH10C2(Br3N2)2
_symmetry_space_group_name_H-M   'P 1'
_cell_length_a   8.60010476
_cell_length_b   10.53450476
_cell_length_c   8.38569882
_cell_angle_alpha   89.12535173
_cell_angle_beta   89.78663377
_cell_angle_gamma   90.85587425
_symmetry_Int_Tables_number   1
_chemical_formula_structural   SrBH10C2(Br3N2)2
_chemical_formula_sum   'Sr2 B2 H20 C4 Br12 N8'
_cell_volume   759.54703365
_cell_formula_units_Z   2
loop_
 _symmetry_equiv_pos_site_id
 _symmetry_equiv_pos_as_xyz
  1  'x, y, z'
loop_
 _atom_site_type_symbol
 _atom_site_label
 _atom_site_symmetry_multiplicity
 _atom_site_fract_x
 _atom_site_fract_y
 _atom_site_fract_z
 _atom_site_occupancy
  C  C0  1  0.49827666  0.27436760  0.51363847  1
  C  C1  1  0.96674274  0.24490111  0.98961104  1
  C  C2  1  0.52146256  0.78827526  0.49173604  1
  C  C3  1  0.98354586  0.69276517  0.01507078  1
  N  N4  1  0.62553773  0.24225887  0.58864748  1
  N  N5  1  0.44410245  0.21858159  0.38525442  1
  N  N6  1  0.08259974  0.29503678  0.90702425  1
  N  N7  1  0.93267326  0.27324165  0.13756755  1
  N  N8  1  0.61013616  0.73947596  0.60255959  1
  N  N9  1  0.40856323  0.72716503  0.41815636  1
  N  N10  1  0.04987804  0.72703510  0.88036882  1
  N  N11  1  0.87487549  0.75843689  0.08722003  1
  H  H12  1  0.43045078  0.35210741  0.56256347  1
  H  H13  1  0.66549093  0.29887369  0.67893548  1
  H  H14  1  0.69612818  0.17229030  0.54801502  1
  H  H15  1  0.34924802  0.25755056  0.33122027  1
  H  H16  1  0.50944308  0.15421085  0.32489653  1
  H  H17  1  0.89434635  0.17283157  0.93175956  1
  H  H18  1  0.09044828  0.27841779  0.78639300  1
  H  H19  1  0.15284779  0.36434835  0.95357680  1
  H  H20  1  0.85157497  0.21859165  0.19795614  1
  H  H21  1  1.00012260  0.33482552  0.20174703  1
  H  H22  1  0.54708509  0.88627589  0.45452394  1
  H  H23  1  0.69263084  0.79736023  0.65442406  1
  H  H24  1  0.60077960  0.64663826  0.64041845  1
  H  H25  1  0.34428794  0.77300113  0.33433968  1
  H  H26  1  0.36953662  0.63888217  0.45442781  1
  H  H27  1  0.02248839  0.60550607  0.07389835  1
  H  H28  1  0.12809417  0.66791431  0.82587500  1
  H  H29  1  0.01335891  0.80703503  0.82074015  1
  H  H30  1  0.84513227  0.73263707  0.20130834  1
  H  H31  1  0.84115909  0.84532590  0.04477264  1
  B  B32  1  0.36414811  0.99809014  0.96464615  1
  B  B33  1  0.90821425  0.51271561  0.50890750  1
  Sr  Sr34  1  0.02817872  0.99785873  0.48817977  1
  Sr  Sr35  1  0.50761340  0.55507624  0.02097872  1
  Br  Br36  1  0.47974584  0.16243092  0.98248078  1
  Br  Br37  1  0.17238143  0.99043758  0.10736182  1
  Br  Br38  1  0.74675942  0.02549810  0.29745595  1
  Br  Br39  1  0.06480506  0.26575941  0.51829619  1
  Br  Br40  1  0.30902893  0.96988260  0.73084087  1
  Br  Br41  1  0.82428396  0.97333232  0.76756285  1
  Br  Br42  1  0.50294708  0.84902409  0.03260456  1
  Br  Br43  1  0.71107857  0.50990777  0.31874817  1
  Br  Br44  1  0.24333287  0.47351803  0.21330202  1
  Br  Br45  1  0.02108281  0.71790339  0.46339771  1
  Br  Br46  1  0.31324570  0.53057830  0.73555872  1
  Br  Br47  1  0.76012539  0.48188496  0.81113644  1
