# generated using pymatgen
data_BAsH10C2(Br3N2)2
_symmetry_space_group_name_H-M   'P 1'
_cell_length_a   7.80089747
_cell_length_b   11.00244651
_cell_length_c   8.47918344
_cell_angle_alpha   88.61147719
_cell_angle_beta   89.93853005
_cell_angle_gamma   90.01550063
_symmetry_Int_Tables_number   1
_chemical_formula_structural   BAsH10C2(Br3N2)2
_chemical_formula_sum   'B2 As2 H20 C4 Br12 N8'
_cell_volume   727.54532532
_cell_formula_units_Z   2
loop_
 _symmetry_equiv_pos_site_id
 _symmetry_equiv_pos_as_xyz
  1  'x, y, z'
loop_
 _atom_site_type_symbol
 _atom_site_label
 _atom_site_symmetry_multiplicity
 _atom_site_fract_x
 _atom_site_fract_y
 _atom_site_fract_z
 _atom_site_occupancy
  C  C0  1  0.49618593  0.29603876  0.50039779  1
  C  C1  1  0.99547428  0.20430811  -0.00008355  1
  C  C2  1  0.50426885  0.78697012  0.51612733  1
  C  C3  1  0.00374738  0.71257418  0.98415366  1
  N  N4  1  0.58984975  0.23875620  0.60675146  1
  N  N5  1  0.39645635  0.24530724  0.39644821  1
  N  N6  1  0.08988441  0.26145559  0.89377336  1
  N  N7  1  0.89541622  0.25515206  0.10366066  1
  N  N8  1  0.61123117  0.73191072  0.61295410  1
  N  N9  1  0.40962540  0.73563842  0.40823910  1
  N  N10  1  0.11086345  0.76757243  0.88713485  1
  N  N11  1  0.90816786  0.76399470  0.09141578  1
  H  H12  1  0.50250180  0.39497653  0.49824954  1
  H  H13  1  0.66426780  0.28963108  0.67986909  1
  H  H14  1  0.59886464  0.14627645  0.61786051  1
  H  H15  1  0.32607989  0.29939974  0.32124093  1
  H  H16  1  0.37388271  0.15385330  0.39503879  1
  H  H17  1  0.00136434  0.10536237  0.00205156  1
  H  H18  1  0.16451105  0.21046426  0.82083179  1
  H  H19  1  0.09940021  0.35392288  0.88269854  1
  H  H20  1  0.82448108  0.20109722  0.17865394  1
  H  H21  1  0.87316318  0.34663966  0.10520716  1
  H  H22  1  0.49231481  0.88522045  0.52638765  1
  H  H23  1  0.68224503  0.78479853  0.68635231  1
  H  H24  1  0.63381299  0.64048138  0.61585747  1
  H  H25  1  0.32639682  0.78909344  0.34447946  1
  H  H26  1  0.40416659  0.64432329  0.39226834  1
  H  H27  1  0.99256860  0.61421434  0.97468856  1
  H  H28  1  0.18253071  0.71456557  0.81429664  1
  H  H29  1  0.13297156  0.85907699  0.88361278  1
  H  H30  1  0.82518496  0.71037617  0.15546595  1
  H  H31  1  0.90175957  0.85536329  0.10667886  1
  B  B32  1  0.48650133  0.00283195  0.11756265  1
  B  B33  1  0.98718149  0.49736593  0.38198269  1
  As  As34  1  0.01063888  0.98007747  0.52949355  1
  As  As35  1  0.51099655  0.52079726  0.97021801  1
  Br  Br36  1  0.49484498  0.15966627  0.99402084  1
  Br  Br37  1  0.24494341  0.99323894  0.22723121  1
  Br  Br38  1  0.67998318  0.01502654  0.28656945  1
  Br  Br39  1  0.99501419  0.34052222  0.50547858  1
  Br  Br40  1  0.26058496  0.03067160  0.69038836  1
  Br  Br41  1  0.80371899  0.98382451  0.74798212  1
  Br  Br42  1  0.50995784  0.84502867  0.00774327  1
  Br  Br43  1  0.74529570  0.50698083  0.27278077  1
  Br  Br44  1  0.18063305  0.48481569  0.21264729  1
  Br  Br45  1  0.01084255  0.65516553  0.49164394  1
  Br  Br46  1  0.30423135  0.51604704  0.75202621  1
  Br  Br47  1  0.76101150  0.46918704  0.80957318  1
