# generated using pymatgen
data_GaBH10C2(Br3N2)2
_symmetry_space_group_name_H-M   'P 1'
_cell_length_a   8.23299388
_cell_length_b   11.34762070
_cell_length_c   8.02042193
_cell_angle_alpha   91.43891265
_cell_angle_beta   90.00271432
_cell_angle_gamma   90.01706078
_symmetry_Int_Tables_number   1
_chemical_formula_structural   GaBH10C2(Br3N2)2
_chemical_formula_sum   'Ga2 B2 H20 C4 Br12 N8'
_cell_volume   749.07073488
_cell_formula_units_Z   2
loop_
 _symmetry_equiv_pos_site_id
 _symmetry_equiv_pos_as_xyz
  1  'x, y, z'
loop_
 _atom_site_type_symbol
 _atom_site_label
 _atom_site_symmetry_multiplicity
 _atom_site_fract_x
 _atom_site_fract_y
 _atom_site_fract_z
 _atom_site_occupancy
  C  C0  1  0.50799720  0.28229146  0.52823867  1
  C  C1  1  0.00829346  0.21799082  0.97188880  1
  C  C2  1  0.51509142  0.78469384  0.53880446  1
  C  C3  1  0.01503227  0.71527835  0.96142248  1
  N  N4  1  0.60158723  0.24416864  0.64733252  1
  N  N5  1  0.38280129  0.22522916  0.46506603  1
  N  N6  1  0.10111581  0.25584660  0.85201582  1
  N  N7  1  0.88306848  0.27492927  0.03514739  1
  N  N8  1  0.62527011  0.74583492  0.64134760  1
  N  N9  1  0.40651461  0.71871768  0.45977524  1
  N  N10  1  0.12527996  0.75409202  0.85883334  1
  N  N11  1  0.90653882  0.78128285  0.04037786  1
  H  H12  1  0.53718181  0.36815284  0.47818582  1
  H  H13  1  0.69231792  0.29859759  0.69051989  1
  H  H14  1  0.58777077  0.16401433  0.70108474  1
  H  H15  1  0.31933639  0.25952109  0.36885711  1
  H  H16  1  0.34282123  0.14762708  0.51421986  1
  H  H17  1  0.03816782  0.13247476  0.02264758  1
  H  H18  1  0.19188948  0.20151633  0.80878739  1
  H  H19  1  0.08663776  0.33574276  0.79769474  1
  H  H20  1  0.82058894  0.24101388  0.13231282  1
  H  H21  1  0.84260383  0.35226598  0.98562201  1
  H  H22  1  0.51425103  0.87934249  0.51780153  1
  H  H23  1  0.70003120  0.80833344  0.69714075  1
  H  H24  1  0.64184416  0.65835490  0.66915630  1
  H  H25  1  0.31894038  0.75898070  0.39225750  1
  H  H26  1  0.38260867  0.63393733  0.49647404  1
  H  H27  1  0.01412277  0.62063912  0.98249340  1
  H  H28  1  0.19998125  0.69157079  0.80310568  1
  H  H29  1  0.14190372  0.84155556  0.83094595  1
  H  H30  1  0.81893380  0.74105051  0.10795750  1
  H  H31  1  0.88273419  0.86606930  0.00369338  1
  B  B32  1  0.47324621  0.93694859  0.15518210  1
  B  B33  1  0.97325488  0.56285416  0.34474079  1
  Ga  Ga34  1  0.99368860  0.99554938  0.51935070  1
  Ga  Ga35  1  0.49388233  0.50426173  0.98043585  1
  Br  Br36  1  0.47030335  0.28451339  0.05657848  1
  Br  Br37  1  0.25740278  0.98899544  0.20552899  1
  Br  Br38  1  0.65666590  0.01543702  0.25233305  1
  Br  Br39  1  0.97036249  0.21545452  0.44313717  1
  Br  Br40  1  0.28262113  0.00581823  0.71620923  1
  Br  Br41  1  0.79156682  0.99468243  0.79108569  1
  Br  Br42  1  0.49760254  0.78971449  0.03728447  1
  Br  Br43  1  0.75741670  0.51077314  0.29426429  1
  Br  Br44  1  0.15670837  0.48461534  0.24733213  1
  Br  Br45  1  0.99762569  0.70990954  0.46307689  1
  Br  Br46  1  0.29152745  0.50535060  0.70884673  1
  Br  Br47  1  0.78288631  0.49406859  0.78351001  1
