# generated using pymatgen
data_CuBH10C2(Br3N2)2
_symmetry_space_group_name_H-M   'P 1'
_cell_length_a   8.15870492
_cell_length_b   10.46878197
_cell_length_c   8.33761251
_cell_angle_alpha   90.17195692
_cell_angle_beta   90.00097747
_cell_angle_gamma   90.00371592
_symmetry_Int_Tables_number   1
_chemical_formula_structural   CuBH10C2(Br3N2)2
_chemical_formula_sum   'Cu2 B2 H20 C4 Br12 N8'
_cell_volume   712.12647440
_cell_formula_units_Z   2
loop_
 _symmetry_equiv_pos_site_id
 _symmetry_equiv_pos_as_xyz
  1  'x, y, z'
loop_
 _atom_site_type_symbol
 _atom_site_label
 _atom_site_symmetry_multiplicity
 _atom_site_fract_x
 _atom_site_fract_y
 _atom_site_fract_z
 _atom_site_occupancy
  C  C0  1  0.50372629  0.29264569  0.51274020  1
  C  C1  1  1.00376428  0.20736056  0.98725750  1
  C  C2  1  0.51307496  0.79251894  0.50537117  1
  C  C3  1  0.01298557  0.70748014  0.99466631  1
  N  N4  1  0.59830313  0.23862980  0.62021165  1
  N  N5  1  0.41653099  0.23433457  0.40250437  1
  N  N6  1  0.09834255  0.26137909  0.87979025  1
  N  N7  1  0.91657234  0.26566576  0.09749422  1
  N  N8  1  0.60066219  0.73893484  0.61828932  1
  N  N9  1  0.40384367  0.73437433  0.41505620  1
  N  N10  1  0.10059947  0.76104852  0.88172286  1
  N  N11  1  0.90377077  0.76564776  0.08493622  1
  H  H12  1  0.49453611  0.39640835  0.51679042  1
  H  H13  1  0.65778041  0.29733146  0.70031666  1
  H  H14  1  0.62191353  0.14269945  0.62604914  1
  H  H15  1  0.35242057  0.28987697  0.32233433  1
  H  H16  1  0.40189016  0.13771036  0.40111750  1
  H  H17  1  0.99456700  0.10359593  0.98320697  1
  H  H18  1  0.15781718  0.20267928  0.79968506  1
  H  H19  1  0.12196342  0.35731446  0.87395088  1
  H  H20  1  0.85245982  0.21011915  0.17766464  1
  H  H21  1  0.90194165  0.36229229  0.09888836  1
  H  H22  1  0.53628013  0.89346958  0.48228818  1
  H  H23  1  0.68113941  0.79682702  0.68068254  1
  H  H24  1  0.58270522  0.64701429  0.65617220  1
  H  H25  1  0.34043337  0.78566985  0.33217273  1
  H  H26  1  0.37472260  0.63989941  0.42590530  1
  H  H27  1  0.03618765  0.60653362  0.01778114  1
  H  H28  1  0.18107173  0.70314280  0.81935451  1
  H  H29  1  0.08265050  0.85295830  0.84382038  1
  H  H30  1  0.84034504  0.71436959  0.16784479  1
  H  H31  1  0.87465307  0.86011725  0.07404714  1
  B  B32  1  0.40661550  0.98612600  0.06531483  1
  B  B33  1  0.90663149  0.51387474  0.43467286  1
  Cu  Cu34  1  0.97219283  0.00981321  0.53976425  1
  Cu  Cu35  1  0.47217769  0.49018790  0.96024400  1
  Br  Br36  1  0.49399196  0.14693652  1.00520675  1
  Br  Br37  1  0.21456969  0.98445208  0.20098585  1
  Br  Br38  1  0.79235833  0.02057574  0.32050656  1
  Br  Br39  1  0.99397828  0.35306793  0.49481370  1
  Br  Br40  1  0.24026050  0.01631245  0.64331348  1
  Br  Br41  1  0.80273661  0.97833854  0.77639052  1
  Br  Br42  1  0.49744578  0.82455621  0.00970052  1
  Br  Br43  1  0.71457984  0.51553016  0.29900811  1
  Br  Br44  1  0.29234584  0.47943994  0.17950204  1
  Br  Br45  1  -0.00250680  0.67544750  0.49025282  1
  Br  Br46  1  0.30274107  0.52169241  0.72361400  1
  Br  Br47  1  0.74024595  0.48366224  0.85670134  1
