# generated using pymatgen
data_TiBH10C2(Br3N2)2
_symmetry_space_group_name_H-M   'P 1'
_cell_length_a   8.41389079
_cell_length_b   10.18274278
_cell_length_c   8.28441537
_cell_angle_alpha   86.08991289
_cell_angle_beta   95.19723464
_cell_angle_gamma   87.18691997
_symmetry_Int_Tables_number   1
_chemical_formula_structural   TiBH10C2(Br3N2)2
_chemical_formula_sum   'Ti2 B2 H20 C4 Br12 N8'
_cell_volume   704.12479150
_cell_formula_units_Z   2
loop_
 _symmetry_equiv_pos_site_id
 _symmetry_equiv_pos_as_xyz
  1  'x, y, z'
loop_
 _atom_site_type_symbol
 _atom_site_label
 _atom_site_symmetry_multiplicity
 _atom_site_fract_x
 _atom_site_fract_y
 _atom_site_fract_z
 _atom_site_occupancy
  C  C0  1  0.48877808  0.30824739  0.62885121  1
  C  C1  1  0.99066847  0.17522188  0.92205530  1
  C  C2  1  0.42610879  0.73199035  0.48936994  1
  C  C3  1  0.06816570  0.76050065  0.11276329  1
  N  N4  1  0.57062132  0.41438347  0.62706332  1
  N  N5  1  0.44396211  0.24178757  0.50239232  1
  N  N6  1  0.01536473  0.26089021  0.78583088  1
  N  N7  1  0.86649900  0.21498994  0.01363964  1
  N  N8  1  0.57936447  0.69668971  0.57052017  1
  N  N9  1  0.36243819  0.68380924  0.36296385  1
  N  N10  1  0.11877279  0.76968698  0.96758863  1
  N  N11  1  0.91726044  0.77341130  0.14202750  1
  H  H12  1  0.61291209  0.43877721  0.51616640  1
  H  H13  1  0.99088519  0.44190073  0.52516677  1
  H  H14  1  0.45046761  0.26919638  0.74422928  1
  H  H15  1  0.45886059  0.27585805  0.38660404  1
  H  H16  1  0.37676780  0.16224298  0.52079054  1
  H  H17  1  0.09996331  0.13941573  0.99636339  1
  H  H18  1  0.12854011  0.29292789  0.78023757  1
  H  H19  1  0.93499897  0.34113905  0.76237243  1
  H  H20  1  0.77400058  0.27108531  0.95031133  1
  H  H21  1  0.82173427  0.13861998  0.07811192  1
  H  H22  1  0.35796830  0.80576454  0.54984042  1
  H  H23  1  0.63310043  0.77573876  0.61952672  1
  H  H24  1  0.65607868  0.65325285  0.49698056  1
  H  H25  1  0.43635643  0.61563852  0.31558781  1
  H  H26  1  0.59687221  0.41468762  0.92405838  1
  H  H27  1  0.15925132  0.74124719  0.21727736  1
  H  H28  1  0.23903077  0.75760670  0.95787077  1
  H  H29  1  0.04537518  0.77701069  0.86118531  1
  H  H30  1  0.89165968  0.76071514  0.25969855  1
  H  H31  1  0.82382519  0.77912486  0.05329564  1
  B  B32  1  0.44305975  0.06294157  0.20464927  1
  B  B33  1  0.96049607  0.40556700  0.39243509  1
  Ti  Ti34  1  0.96978697  0.07265100  0.69442949  1
  Ti  Ti35  1  0.55910418  0.55370861  0.80078799  1
  Br  Br36  1  0.45808356  0.22472082  0.07767018  1
  Br  Br37  1  0.24269293  0.01267130  0.26972097  1
  Br  Br38  1  0.63472851  0.96503411  0.28687394  1
  Br  Br39  1  0.91326693  0.20109580  0.42024914  1
  Br  Br40  1  0.26476749  0.02557239  0.74724576  1
  Br  Br41  1  0.70554591  0.01586554  0.76637453  1
  Br  Br42  1  0.52509602  0.73621454  0.97933164  1
  Br  Br43  1  0.75121482  0.49411086  0.28408031  1
  Br  Br44  1  0.13440890  0.42373855  0.24738268  1
  Br  Br45  1  0.97691075  0.84809018  0.55488095  1
  Br  Br46  1  0.27372827  0.51601091  0.79923771  1
  Br  Br47  1  0.85047549  0.55851091  0.83401389  1
