# generated using pymatgen
data_ScAlH12C2(I3N)2
_symmetry_space_group_name_H-M   'P 1'
_cell_length_a   8.39436141
_cell_length_b   12.05963557
_cell_length_c   8.27942661
_cell_angle_alpha   92.20605061
_cell_angle_beta   90.00570990
_cell_angle_gamma   89.97266908
_symmetry_Int_Tables_number   1
_chemical_formula_structural   ScAlH12C2(I3N)2
_chemical_formula_sum   'Sc2 Al2 H24 C4 I12 N4'
_cell_volume   837.52940590
_cell_formula_units_Z   2
loop_
 _symmetry_equiv_pos_site_id
 _symmetry_equiv_pos_as_xyz
  1  'x, y, z'
loop_
 _atom_site_type_symbol
 _atom_site_label
 _atom_site_symmetry_multiplicity
 _atom_site_fract_x
 _atom_site_fract_y
 _atom_site_fract_z
 _atom_site_occupancy
  C  C0  1  0.39851883  0.25085704  0.41542847  1
  C  C1  1  0.89962721  0.24938287  0.08556071  1
  C  C2  1  0.60147915  0.74914693  0.58458342  1
  C  C3  1  0.10037801  0.75061925  0.91445286  1
  N  N4  1  0.54036245  0.25158711  0.52223068  1
  N  N5  1  0.04082182  0.24845645  0.97790679  1
  N  N6  1  0.45963519  0.74841821  0.47778190  1
  N  N7  1  0.95918610  0.75154147  0.02210995  1
  H  H8  1  0.43856929  0.24906721  0.28951450  1
  H  H9  1  0.32784578  0.17703664  0.43816899  1
  H  H10  1  0.32888639  0.32604341  0.44186026  1
  H  H11  1  0.60917603  0.18098851  0.49818557  1
  H  H12  1  0.61051808  0.32044375  0.50089973  1
  H  H13  1  0.50983965  0.25384824  0.64462062  1
  H  H14  1  0.94041505  0.25122975  0.21120890  1
  H  H15  1  0.82981796  0.17423249  0.05966970  1
  H  H16  1  0.82881835  0.32325817  0.06313715  1
  H  H17  1  0.11106548  0.17952837  0.99894221  1
  H  H18  1  0.10981191  0.31899413  0.00155668  1
  H  H19  1  0.00964969  0.24618571  0.85572238  1
  H  H20  1  0.56142939  0.75093866  0.71049737  1
  H  H21  1  0.67111047  0.67396106  0.55815257  1
  H  H22  1  0.67215299  0.82296776  0.56184119  1
  H  H23  1  0.39082180  0.81901559  0.50182713  1
  H  H24  1  0.38947940  0.67956030  0.49911403  1
  H  H25  1  0.49015720  0.74615586  0.35539182  1
  H  H26  1  0.05958819  0.74877455  0.78880588  1
  H  H27  1  0.17018630  0.82576993  0.94034637  1
  H  H28  1  0.17118906  0.67674425  0.93687179  1
  H  H29  1  0.88893904  0.82046883  0.00107810  1
  H  H30  1  0.89019762  0.68100294  0.99845819  1
  H  H31  1  0.99036002  0.75381088  0.14429325  1
  Al  Al32  1  0.50000125  0.00000546  0.00000756  1
  Al  Al33  1  0.99998926  0.50000320  0.49999119  1
  Sc  Sc34  1  0.99999987  0.00000274  0.50000941  1
  Sc  Sc35  1  0.49999905  0.50000483  0.99999728  1
  I  I36  1  0.47872908  0.26111886  0.94817934  1
  I  I37  1  0.17243951  0.01576143  0.19770885  1
  I  I38  1  0.70069005  0.00482566  0.32646793  1
  I  I39  1  0.97803390  0.23883691  0.55230366  1
  I  I40  1  0.29931136  0.99517891  0.67354963  1
  I  I41  1  0.82756424  0.98423904  0.80230969  1
  I  I42  1  0.52127464  0.73888850  0.05183180  1
  I  I43  1  0.67226512  0.48421955  0.30238726  1
  I  I44  1  0.20065720  0.49526169  0.17337200  1
  I  I45  1  0.02196569  0.76116668  0.44771295  1
  I  I46  1  0.32772833  0.51578504  0.69761750  1
  I  I47  1  0.79934133  0.50474346  0.82663136  1
