# generated using pymatgen
data_ScBH10C2(Br3N2)2
_symmetry_space_group_name_H-M   'P 1'
_cell_length_a   8.11421243
_cell_length_b   11.15102532
_cell_length_c   8.03143493
_cell_angle_alpha   90.64450534
_cell_angle_beta   89.99666584
_cell_angle_gamma   89.99334981
_symmetry_Int_Tables_number   1
_chemical_formula_structural   ScBH10C2(Br3N2)2
_chemical_formula_sum   'Sc2 B2 H20 C4 Br12 N8'
_cell_volume   726.65261299
_cell_formula_units_Z   2
loop_
 _symmetry_equiv_pos_site_id
 _symmetry_equiv_pos_as_xyz
  1  'x, y, z'
loop_
 _atom_site_type_symbol
 _atom_site_label
 _atom_site_symmetry_multiplicity
 _atom_site_fract_x
 _atom_site_fract_y
 _atom_site_fract_z
 _atom_site_occupancy
  C  C0  1  0.49912796  0.29039805  0.49827845  1
  C  C1  1  0.99908916  0.20964651  0.00175063  1
  C  C2  1  0.50446697  0.79081353  0.50523346  1
  C  C3  1  0.00433178  0.70911339  0.99472925  1
  N  N4  1  0.60093939  0.23827165  0.60126983  1
  N  N5  1  0.40003790  0.23552378  0.39366749  1
  N  N6  1  0.10096734  0.26175183  0.89880524  1
  N  N7  1  0.89999677  0.26453162  0.10636000  1
  N  N8  1  0.60640323  0.73660541  0.60598039  1
  N  N9  1  0.39636592  0.73800669  0.40797253  1
  N  N10  1  0.10632932  0.76334141  0.89403719  1
  N  N11  1  0.89615369  0.76188785  0.09193844  1
  H  H12  1  0.49646231  0.38815901  0.49981199  1
  H  H13  1  0.67201363  0.29104666  0.67719744  1
  H  H14  1  0.61282235  0.14754315  0.61160975  1
  H  H15  1  0.32621381  0.28644512  0.31961661  1
  H  H16  1  0.39263561  0.14453973  0.38075136  1
  H  H17  1  0.99636874  0.11188296  0.00016027  1
  H  H18  1  0.17204199  0.20896213  0.82286214  1
  H  H19  1  0.11291116  0.35247711  0.88850919  1
  H  H20  1  0.82612672  0.21361997  0.18037356  1
  H  H21  1  0.89261689  0.35551610  0.11932418  1
  H  H22  1  0.51069433  0.88837427  0.50182833  1
  H  H23  1  0.68584469  0.78904203  0.67387585  1
  H  H24  1  0.60977558  0.64586527  0.62319939  1
  H  H25  1  0.32187490  0.79111000  0.33711700  1
  H  H26  1  0.38401795  0.64706436  0.39591550  1
  H  H27  1  0.01060742  0.61155338  0.99808991  1
  H  H28  1  0.18584664  0.71090894  0.82620619  1
  H  H29  1  0.10967780  0.85407939  0.87685234  1
  H  H30  1  0.82165053  0.70875584  0.16274079  1
  H  H31  1  0.88373321  0.85283093  0.10402056  1
  B  B32  1  0.48097544  0.95198162  0.01858057  1
  B  B33  1  0.98156579  0.54815529  0.48139906  1
  Sc  Sc34  1  0.99966109  0.02917155  0.49953083  1
  Sc  Sc35  1  0.49967407  0.47086764  0.00050341  1
  Br  Br36  1  0.50174893  0.25105678  0.99786884  1
  Br  Br37  1  0.19098130  0.97592568  0.24233086  1
  Br  Br38  1  0.74332869  0.00796473  0.29762718  1
  Br  Br39  1  0.00175716  0.24898365  0.50217204  1
  Br  Br40  1  0.25806324  0.00635320  0.69569418  1
  Br  Br41  1  0.80724136  0.98086197  0.75254265  1
  Br  Br42  1  0.49861577  0.77510460  0.00524376  1
  Br  Br43  1  0.69096984  0.52403624  0.25767958  1
  Br  Br44  1  0.24327004  0.49209212  0.20238197  1
  Br  Br45  1  0.99876523  0.72503266  0.49470085  1
  Br  Br46  1  0.30724260  0.51915631  0.74747953  1
  Br  Br47  1  0.75801311  0.49365085  0.80428420  1
