# generated using pymatgen
data_BPH10C2(Br3N2)2
_symmetry_space_group_name_H-M   'P 1'
_cell_length_a   8.38908844
_cell_length_b   10.64864644
_cell_length_c   8.03697295
_cell_angle_alpha   92.35152544
_cell_angle_beta   88.88661219
_cell_angle_gamma   89.95428405
_symmetry_Int_Tables_number   1
_chemical_formula_structural   BPH10C2(Br3N2)2
_chemical_formula_sum   'B2 P2 H20 C4 Br12 N8'
_cell_volume   717.22142973
_cell_formula_units_Z   2
loop_
 _symmetry_equiv_pos_site_id
 _symmetry_equiv_pos_as_xyz
  1  'x, y, z'
loop_
 _atom_site_type_symbol
 _atom_site_label
 _atom_site_symmetry_multiplicity
 _atom_site_fract_x
 _atom_site_fract_y
 _atom_site_fract_z
 _atom_site_occupancy
  C  C0  1  0.50460381  0.31273267  0.51311389  1
  C  C1  1  0.01389612  0.22868519  0.01568828  1
  C  C2  1  0.48625659  0.75968222  0.48856397  1
  C  C3  1  0.99167991  0.71731768  0.02669144  1
  N  N4  1  0.60912998  0.26210703  0.60971776  1
  N  N5  1  0.39575989  0.25147207  0.42814934  1
  N  N6  1  0.07809399  0.28723900  0.89076390  1
  N  N7  1  0.86423774  0.23777486  0.06547878  1
  N  N8  1  0.62827612  0.73887353  0.54770902  1
  N  N9  1  0.42998769  0.71037029  0.34894298  1
  N  N10  1  0.11088418  0.76750695  0.94567822  1
  N  N11  1  0.86089037  0.77596059  0.07840812  1
  H  H12  1  0.50863343  0.41449403  0.50348582  1
  H  H13  1  0.68928528  0.32014371  0.66849149  1
  H  H14  1  0.62153591  0.16750789  0.62295946  1
  H  H15  1  0.32041981  0.30041889  0.35598273  1
  H  H16  1  0.37770581  0.15688312  0.43449430  1
  H  H17  1  0.09161137  0.16696849  0.08351773  1
  H  H18  1  0.19557159  0.27287214  0.86163482  1
  H  H19  1  0.01517381  0.34506978  0.81779180  1
  H  H20  1  0.82419588  0.18638960  0.16227216  1
  H  H21  1  0.78208261  0.29400559  0.01201517  1
  H  H22  1  0.40742630  0.82380669  0.56171622  1
  H  H23  1  0.66256170  0.78681153  0.65362365  1
  H  H24  1  0.70937374  0.67951571  0.48855976  1
  H  H25  1  0.31854309  0.73644710  0.31611386  1
  H  H26  1  0.49289035  0.65479215  0.26184550  1
  H  H27  1  0.00338949  0.61892796  0.05724941  1
  H  H28  1  0.20796868  0.71256151  0.91351550  1
  H  H29  1  0.11288509  0.85842413  0.90909259  1
  H  H30  1  0.76911934  0.72314290  0.12265966  1
  H  H31  1  0.83361730  0.86463993  0.04440767  1
  B  B32  1  0.46388878  0.00126834  0.11514715  1
  B  B33  1  0.01179395  0.46843052  0.40134372  1
  P  P34  1  0.00381973  0.95580860  0.54556809  1
  P  P35  1  0.55122933  0.48942112  0.00185675  1
  Br  Br36  1  0.47288849  0.16378485  0.99524506  1
  Br  Br37  1  0.24462557  0.98991953  0.23142944  1
  Br  Br38  1  0.64237353  0.00883841  0.28900071  1
  Br  Br39  1  0.00070047  0.29468108  0.49012394  1
  Br  Br40  1  0.22754514  0.01661711  0.69316136  1
  Br  Br41  1  0.81263063  0.00350960  0.75180750  1
  Br  Br42  1  0.49588266  0.84498504  0.96718753  1
  Br  Br43  1  0.79235346  0.50263614  0.29572124  1
  Br  Br44  1  0.18813443  0.46836663  0.22139242  1
  Br  Br45  1  0.05216558  0.61476297  0.55912760  1
  Br  Br46  1  0.35595145  0.52734174  0.81006826  1
  Br  Br47  1  0.76634916  0.51614635  0.82158900  1
