# generated using pymatgen
data_AlBH10C2(Br3N2)2
_symmetry_space_group_name_H-M   'P 1'
_cell_length_a   8.44661101
_cell_length_b   9.60005048
_cell_length_c   9.68710701
_cell_angle_alpha   93.04314208
_cell_angle_beta   89.51894613
_cell_angle_gamma   86.28566695
_symmetry_Int_Tables_number   1
_chemical_formula_structural   AlBH10C2(Br3N2)2
_chemical_formula_sum   'Al2 B2 H20 C4 Br12 N8'
_cell_volume   782.69651789
_cell_formula_units_Z   2
loop_
 _symmetry_equiv_pos_site_id
 _symmetry_equiv_pos_as_xyz
  1  'x, y, z'
loop_
 _atom_site_type_symbol
 _atom_site_label
 _atom_site_symmetry_multiplicity
 _atom_site_fract_x
 _atom_site_fract_y
 _atom_site_fract_z
 _atom_site_occupancy
  C  C0  1  0.51143454  0.26513564  0.50961734  1
  C  C1  1  0.03239622  0.25693117  0.04540921  1
  C  C2  1  0.53789090  0.76212949  0.55714811  1
  C  C3  1  0.07536358  0.85531616  0.97906427  1
  N  N4  1  0.59375274  0.16291703  0.56316762  1
  N  N5  1  0.37799146  0.25177018  0.44028217  1
  N  N6  1  0.06493154  0.32047432  0.93352133  1
  N  N7  1  0.88964916  0.25625774  0.10100382  1
  N  N8  1  0.59992637  0.88146405  0.56935125  1
  N  N9  1  0.40480678  0.73827422  0.48612060  1
  N  N10  1  0.08135882  0.72994708  0.92888884  1
  N  N11  1  0.86870388  0.61217512  0.09776702  1
  H  H12  1  0.55550805  0.36936576  0.52122334  1
  H  H13  1  0.69292866  0.18853449  0.61586479  1
  H  H14  1  0.57176821  0.05236059  0.55708798  1
  H  H15  1  0.31092255  0.33894005  0.41663720  1
  H  H16  1  0.31739306  0.16385007  0.44684606  1
  H  H17  1  0.12951208  0.19989882  0.09624445  1
  H  H18  1  0.17717687  0.31411647  0.89300076  1
  H  H19  1  0.97837748  0.37438998  0.87968435  1
  H  H20  1  0.87371652  0.20732108  0.19034150  1
  H  H21  1  0.79279296  0.30652855  0.05919728  1
  H  H22  1  0.33647226  0.82125721  0.45428016  1
  H  H23  1  0.70261702  0.87101295  0.62450975  1
  H  H24  1  0.59354512  0.66875693  0.60209997  1
  H  H25  1  0.34423666  0.65445139  0.50932163  1
  H  H26  1  0.53096004  0.44912745  0.01196695  1
  H  H27  1  0.94908727  0.64158921  0.02223999  1
  H  H28  1  0.16582451  0.70997857  0.85182850  1
  H  H29  1  0.15214476  0.93507281  0.94469713  1
  H  H30  1  0.75253258  0.64067816  0.07957300  1
  H  H31  1  0.98862821  0.88647242  0.06217208  1
  B  B32  1  0.48815073  0.02883569  0.17512519  1
  B  B33  1  0.91527341  0.55883794  0.22062809  1
  Al  Al34  1  0.02823103  0.02573444  0.62751841  1
  Al  Al35  1  0.53307359  0.53240132  0.87509437  1
  Br  Br36  1  0.48221473  0.17984410  0.05395735  1
  Br  Br37  1  0.29042799  0.96057351  0.23272593  1
  Br  Br38  1  0.68367390  0.95828838  0.24725046  1
  Br  Br39  1  0.98652830  0.19836550  0.46744024  1
  Br  Br40  1  0.27579926  0.05084652  0.72060063  1
  Br  Br41  1  0.83898376  0.05335955  0.80434877  1
  Br  Br42  1  0.53124294  0.77129950  0.92221874  1
  Br  Br43  1  0.75940403  0.51420499  0.35625401  1
  Br  Br44  1  0.14279532  0.52384833  0.25581121  1
  Br  Br45  1  0.00925400  0.81012838  0.51484372  1
  Br  Br46  1  0.31647330  0.48377967  0.73227086  1
  Br  Br47  1  0.76414219  0.46321999  0.74385835  1
