# generated using pymatgen
data_BH10C2Br6N5
_symmetry_space_group_name_H-M   'P 1'
_cell_length_a   8.18676049
_cell_length_b   11.02602715
_cell_length_c   7.56133419
_cell_angle_alpha   90.59511192
_cell_angle_beta   90.00106514
_cell_angle_gamma   89.99489541
_symmetry_Int_Tables_number   1
_chemical_formula_structural   BH10C2Br6N5
_chemical_formula_sum   'B2 H20 C4 Br12 N10'
_cell_volume   682.50548713
_cell_formula_units_Z   2
loop_
 _symmetry_equiv_pos_site_id
 _symmetry_equiv_pos_as_xyz
  1  'x, y, z'
loop_
 _atom_site_type_symbol
 _atom_site_label
 _atom_site_symmetry_multiplicity
 _atom_site_fract_x
 _atom_site_fract_y
 _atom_site_fract_z
 _atom_site_occupancy
  C  C0  1  0.50480277  0.28361136  0.48800742  1
  C  C1  1  0.00518107  0.21638691  0.01179885  1
  C  C2  1  0.50256416  0.79629107  0.52922625  1
  C  C3  1  0.00273905  0.70364820  0.97070714  1
  N  N4  1  0.60310792  0.22655258  0.59600798  1
  N  N5  1  0.39262334  0.23349710  0.38774520  1
  N  N6  1  0.10367152  0.27333218  0.90385209  1
  N  N7  1  0.89315253  0.26661961  0.11210478  1
  N  N8  1  0.61612616  0.73881991  0.61750311  1
  N  N9  1  0.39485608  0.74637513  0.42325068  1
  N  N10  1  0.11661918  0.76103601  0.88276374  1
  N  N11  1  0.89539424  0.75357316  0.07706936  1
  H  H12  1  0.51924296  0.38168371  0.47966115  1
  H  H13  1  0.67143458  0.27841850  0.68180397  1
  H  H14  1  0.59812446  0.13567321  0.61842248  1
  H  H15  1  0.32734561  0.28849521  0.30580764  1
  H  H16  1  0.36743455  0.14270698  0.38455053  1
  H  H17  1  0.01933156  0.11828548  0.02000775  1
  H  H18  1  0.17196904  0.22137513  0.81815989  1
  H  H19  1  0.09903926  0.36424096  0.88156894  1
  H  H20  1  0.82774047  0.21168018  0.19398979  1
  H  H21  1  0.86819147  0.35744772  0.11539436  1
  H  H22  1  0.49662925  0.89449835  0.54645997  1
  H  H23  1  0.68924009  0.78881316  0.69996550  1
  H  H24  1  0.62608983  0.64643300  0.62386824  1
  H  H25  1  0.31329588  0.80165272  0.35896392  1
  H  H26  1  0.39624728  0.65628758  0.39022140  1
  H  H27  1  0.99618204  0.60551830  0.95273152  1
  H  H28  1  0.18946171  0.71106691  0.79999765  1
  H  H29  1  0.12704887  0.85341037  0.87697921  1
  H  H30  1  0.81358673  0.69834882  0.14108889  1
  H  H31  1  0.89733639  0.84355305  0.11076264  1
  B  B32  1  0.60678221  0.99743015  0.01987381  1
  B  B33  1  0.10622878  0.50257994  0.48007788  1
  N  N34  1  0.04401969  0.99930423  0.49803013  1
  N  N35  1  0.54375724  0.50131079  0.00175966  1
  Br  Br36  1  0.47331135  0.14841955  0.98788770  1
  Br  Br37  1  0.16608502  0.97246246  0.27964583  1
  Br  Br38  1  0.72180343  0.00950569  0.26138200  1
  Br  Br39  1  0.97265337  0.35169076  0.51216968  1
  Br  Br40  1  0.21092644  0.02545755  0.67828580  1
  Br  Br41  1  0.77760558  0.99039353  0.81793299  1
  Br  Br42  1  0.47825434  0.84318008  0.01096080  1
  Br  Br43  1  0.66574218  0.52772576  0.22027095  1
  Br  Br44  1  0.22113977  0.49055967  0.23849276  1
  Br  Br45  1  0.97791070  0.65692560  0.48933046  1
  Br  Br46  1  0.27732187  0.50939437  0.68182047  1
  Br  Br47  1  0.71066728  0.47439028  0.82174178  1
