# generated using pymatgen
data_H10PbC3(Br3N2)2
_symmetry_space_group_name_H-M   'P 1'
_cell_length_a   8.25628648
_cell_length_b   11.13598833
_cell_length_c   8.06557128
_cell_angle_alpha   88.33498709
_cell_angle_beta   89.99885315
_cell_angle_gamma   89.99995156
_symmetry_Int_Tables_number   1
_chemical_formula_structural   H10PbC3(Br3N2)2
_chemical_formula_sum   'H20 Pb2 C6 Br12 N8'
_cell_volume   741.25093046
_cell_formula_units_Z   2
loop_
 _symmetry_equiv_pos_site_id
 _symmetry_equiv_pos_as_xyz
  1  'x, y, z'
loop_
 _atom_site_type_symbol
 _atom_site_label
 _atom_site_symmetry_multiplicity
 _atom_site_fract_x
 _atom_site_fract_y
 _atom_site_fract_z
 _atom_site_occupancy
  C  C0  1  0.49709587  0.28358140  0.49900986  1
  C  C1  1  0.99712575  0.21642597  0.00098969  1
  C  C2  1  0.49520204  0.79514617  0.49288647  1
  C  C3  1  0.99518483  0.70485715  0.00711965  1
  N  N4  1  0.61322969  0.23277243  0.58659878  1
  N  N5  1  0.41030148  0.23077516  0.38614355  1
  N  N6  1  0.11327265  0.26723096  0.91341557  1
  N  N7  1  0.91033460  0.26921812  0.11386856  1
  N  N8  1  0.59218946  0.74717119  0.60485187  1
  N  N9  1  0.38641857  0.73699865  0.40771161  1
  N  N10  1  0.09217864  0.75283492  0.89513951  1
  N  N11  1  0.88640125  0.76299303  0.09228559  1
  H  H12  1  0.46874964  0.37730249  0.52281120  1
  H  H13  1  0.67286816  0.28125635  0.67264963  1
  H  H14  1  0.64385361  0.14432365  0.57894489  1
  H  H15  1  0.32365530  0.28016412  0.32445382  1
  H  H16  1  0.43345878  0.14609795  0.34746079  1
  H  H17  1  0.96876418  0.12270589  0.97716259  1
  H  H18  1  0.17291009  0.21875558  0.82735637  1
  H  H19  1  0.14390842  0.35567901  0.92109546  1
  H  H20  1  0.82367477  0.21983370  0.17554426  1
  H  H21  1  0.93350267  0.35389271  0.15256988  1
  H  H22  1  0.50820852  0.89126270  0.46622789  1
  H  H23  1  0.66910887  0.80233044  0.66770418  1
  H  H24  1  0.59052962  0.65769258  0.63652747  1
  H  H25  1  0.32202072  0.78339972  0.31894680  1
  H  H26  1  0.36272781  0.64733750  0.42429411  1
  H  H27  1  0.00821362  0.60873911  0.03377958  1
  H  H28  1  0.16910436  0.69768089  0.83229549  1
  H  H29  1  0.09049809  0.84231276  0.86346043  1
  H  H30  1  0.82200316  0.71658970  0.18105600  1
  H  H31  1  0.86269420  0.85265559  0.07570269  1
  C  C32  1  0.42927389  0.97256454  0.98988103  1
  C  C33  1  0.92928582  0.52744108  0.51011963  1
  Pb  Pb34  1  0.99775967  0.00012832  0.49060303  1
  Pb  Pb35  1  0.49778078  0.49988119  0.00939577  1
  Br  Br36  1  0.52027831  0.25730917  0.98760805  1
  Br  Br37  1  0.24147480  0.98305444  0.17141823  1
  Br  Br38  1  0.72623144  0.01685912  0.27825546  1
  Br  Br39  1  0.02024876  0.24269843  0.51241521  1
  Br  Br40  1  0.30878082  0.00165521  0.76113638  1
  Br  Br41  1  0.79868884  0.97889131  0.77366293  1
  Br  Br42  1  0.48779305  0.79430602  0.99976056  1
  Br  Br43  1  0.74148581  0.51694362  0.32859112  1
  Br  Br44  1  0.22624240  0.48314609  0.22174607  1
  Br  Br45  1  0.98780863  0.70569871  0.50023170  1
  Br  Br46  1  0.29870513  0.52111512  0.72634736  1
  Br  Br47  1  0.80879177  0.49835301  0.73886797  1
