# generated using pymatgen
data_HgH10C3(Br3N2)2
_symmetry_space_group_name_H-M   'P 1'
_cell_length_a   8.25039395
_cell_length_b   11.00373690
_cell_length_c   8.10146531
_cell_angle_alpha   89.81874957
_cell_angle_beta   90.00118399
_cell_angle_gamma   90.00271791
_symmetry_Int_Tables_number   1
_chemical_formula_structural   HgH10C3(Br3N2)2
_chemical_formula_sum   'Hg2 H20 C6 Br12 N8'
_cell_volume   735.48917920
_cell_formula_units_Z   2
loop_
 _symmetry_equiv_pos_site_id
 _symmetry_equiv_pos_as_xyz
  1  'x, y, z'
loop_
 _atom_site_type_symbol
 _atom_site_label
 _atom_site_symmetry_multiplicity
 _atom_site_fract_x
 _atom_site_fract_y
 _atom_site_fract_z
 _atom_site_occupancy
  C  C0  1  0.51080965  0.28563037  0.49065265  1
  C  C1  1  0.01080424  0.21436596  0.00933835  1
  C  C2  1  0.49869907  0.80117807  0.49817829  1
  C  C3  1  0.99870050  0.69881882  0.00181005  1
  N  N4  1  0.60759057  0.23215662  0.59757394  1
  N  N5  1  0.42058855  0.23059801  0.38151843  1
  N  N6  1  0.10762279  0.26784608  0.90248851  1
  N  N7  1  0.92058057  0.26939912  0.11851902  1
  N  N8  1  0.59375206  0.74809098  0.60575442  1
  N  N9  1  0.39119395  0.74669271  0.40502835  1
  N  N10  1  0.09375298  0.75190684  0.89425028  1
  N  N11  1  0.89117384  0.75329624  0.09495095  1
  H  H12  1  0.50529945  0.38461413  0.49295763  1
  H  H13  1  0.66987277  0.28518246  0.67914205  1
  H  H14  1  0.60263771  0.14142129  0.62337361  1
  H  H15  1  0.34346048  0.28244426  0.31198104  1
  H  H16  1  0.41898380  0.13893557  0.36283753  1
  H  H17  1  0.00522201  0.11538283  0.00695757  1
  H  H18  1  0.16989945  0.21483771  0.82089044  1
  H  H19  1  0.10274574  0.35859825  0.87676293  1
  H  H20  1  0.84340533  0.21753826  0.18799057  1
  H  H21  1  0.91903966  0.36105589  0.13725074  1
  H  H22  1  0.51120274  0.89915541  0.48351901  1
  H  H23  1  0.67132687  0.80071321  0.67395123  1
  H  H24  1  0.58923612  0.65707657  0.63079257  1
  H  H25  1  0.32688071  0.79787796  0.32227910  1
  H  H26  1  0.37274266  0.65475140  0.40366773  1
  H  H27  1  0.01120743  0.60084108  0.01647936  1
  H  H28  1  0.17133774  0.69929269  0.82605673  1
  H  H29  1  0.08922586  0.84292051  0.86920297  1
  H  H30  1  0.82685871  0.70210421  0.17769385  1
  H  H31  1  0.87271252  0.84523614  0.09630484  1
  C  C32  1  0.42666484  0.96572391  0.99817436  1
  C  C33  1  0.92668366  0.53429371  0.50182607  1
  Hg  Hg34  1  0.92114479  0.05232119  0.51614577  1
  Hg  Hg35  1  0.42121981  0.44773048  0.98383709  1
  Br  Br36  1  0.55355196  0.24070363  0.99555148  1
  Br  Br37  1  0.24020341  0.98139642  0.18064172  1
  Br  Br38  1  0.73553637  0.00723134  0.26242447  1
  Br  Br39  1  0.05357361  0.25931091  0.50447617  1
  Br  Br40  1  0.30360520  0.00023107  0.77074437  1
  Br  Br41  1  0.80212108  0.97335060  0.79328811  1
  Br  Br42  1  0.48280588  0.78671780  0.99864675  1
  Br  Br43  1  0.74022581  0.51859910  0.31933846  1
  Br  Br44  1  0.23556104  0.49276207  0.23755481  1
  Br  Br45  1  0.98281184  0.71329822  0.50134866  1
  Br  Br46  1  0.30213180  0.52665196  0.70670079  1
  Br  Br47  1  0.80361169  0.49978090  0.72925088  1
