# generated using pymatgen
data_H10PtC3(Br3N2)2
_symmetry_space_group_name_H-M   'P 1'
_cell_length_a   8.03446628
_cell_length_b   10.49272805
_cell_length_c   8.29697664
_cell_angle_alpha   89.99010435
_cell_angle_beta   89.99982258
_cell_angle_gamma   90.00307782
_symmetry_Int_Tables_number   1
_chemical_formula_structural   H10PtC3(Br3N2)2
_chemical_formula_sum   'H20 Pt2 C6 Br12 N8'
_cell_volume   699.46390740
_cell_formula_units_Z   2
loop_
 _symmetry_equiv_pos_site_id
 _symmetry_equiv_pos_as_xyz
  1  'x, y, z'
loop_
 _atom_site_type_symbol
 _atom_site_label
 _atom_site_symmetry_multiplicity
 _atom_site_fract_x
 _atom_site_fract_y
 _atom_site_fract_z
 _atom_site_occupancy
  C  C0  1  0.50171447  0.29467681  0.49329329  1
  C  C1  1  0.00174502  0.20531946  0.00671128  1
  C  C2  1  0.50844239  0.79221270  0.50509877  1
  C  C3  1  0.00840728  0.70779108  0.99490505  1
  N  N4  1  0.59833433  0.23977852  0.59996812  1
  N  N5  1  0.40918941  0.23709129  0.38518808  1
  N  N6  1  0.09837002  0.26020730  0.90005534  1
  N  N7  1  0.90921243  0.26292125  0.11482600  1
  N  N8  1  0.61358018  0.73358115  0.60042228  1
  N  N9  1  0.40105986  0.73889052  0.40689804  1
  N  N10  1  0.11354860  0.76643595  0.89959464  1
  N  N11  1  0.90100534  0.76110491  0.09310194  1
  H  H12  1  0.49753206  0.39837547  0.49458016  1
  H  H13  1  0.66341831  0.29697340  0.67800403  1
  H  H14  1  0.62108929  0.14399061  0.60457063  1
  H  H15  1  0.34175017  0.29285621  0.30733220  1
  H  H16  1  0.39503903  0.14052008  0.37829773  1
  H  H17  1  0.99754411  0.10162399  0.00542968  1
  H  H18  1  0.16344344  0.20301540  0.82202175  1
  H  H19  1  0.12114290  0.35599320  0.89544555  1
  H  H20  1  0.84176385  0.20715282  0.19267092  1
  H  H21  1  0.89508704  0.35949066  0.12170555  1
  H  H22  1  0.51004289  0.89594872  0.50832869  1
  H  H23  1  0.69477281  0.78905822  0.66522936  1
  H  H24  1  0.62413986  0.63678506  0.60854412  1
  H  H25  1  0.32451327  0.79749954  0.34112831  1
  H  H26  1  0.39259542  0.64302752  0.38717920  1
  H  H27  1  0.01001803  0.60405957  0.99167126  1
  H  H28  1  0.19474492  0.71097241  0.83479749  1
  H  H29  1  0.12410178  0.86323127  0.89148307  1
  H  H30  1  0.82446348  0.70248174  0.15886384  1
  H  H31  1  0.89253622  0.85696929  0.11282490  1
  C  C32  1  0.36923108  0.99677285  0.99187748  1
  C  C33  1  0.86923487  0.50323108  0.50811803  1
  Pt  Pt34  1  0.00516826  0.00131155  0.50283704  1
  Pt  Pt35  1  0.50518089  0.49869280  0.99715143  1
  Br  Br36  1  0.50266095  0.14965668  0.99495642  1
  Br  Br37  1  0.17604861  0.98329220  0.25817430  1
  Br  Br38  1  0.75922264  0.01123148  0.32626254  1
  Br  Br39  1  0.00264642  0.35034742  0.50505011  1
  Br  Br40  1  0.25757961  0.02362286  0.66576000  1
  Br  Br41  1  0.82594081  0.98873366  0.74414009  1
  Br  Br42  1  0.50695951  0.84613245  -0.00134268  1
  Br  Br43  1  0.67606596  0.51667615  0.24181940  1
  Br  Br44  1  0.25922896  0.48878964  0.17372385  1
  Br  Br45  1  0.00697240  0.65387445  0.50132533  1
  Br  Br46  1  0.32594950  0.51130277  0.75585104  1
  Br  Br47  1  0.75758064  0.47635879  0.83422910  1
