# generated using pymatgen
data_HfH10C3(Br3N2)2
_symmetry_space_group_name_H-M   'P 1'
_cell_length_a   8.72892795
_cell_length_b   10.01036164
_cell_length_c   8.39613660
_cell_angle_alpha   97.00848712
_cell_angle_beta   90.03991458
_cell_angle_gamma   90.03091243
_symmetry_Int_Tables_number   1
_chemical_formula_structural   HfH10C3(Br3N2)2
_chemical_formula_sum   'Hf2 H20 C6 Br12 N8'
_cell_volume   728.17000683
_cell_formula_units_Z   2
loop_
 _symmetry_equiv_pos_site_id
 _symmetry_equiv_pos_as_xyz
  1  'x, y, z'
loop_
 _atom_site_type_symbol
 _atom_site_label
 _atom_site_symmetry_multiplicity
 _atom_site_fract_x
 _atom_site_fract_y
 _atom_site_fract_z
 _atom_site_occupancy
  C  C0  1  0.52018348  0.29310765  0.46787263  1
  C  C1  1  0.02015185  0.20668137  0.03219263  1
  C  C2  1  0.50128613  0.81389697  0.52276298  1
  C  C3  1  0.00115304  0.68621260  0.97711613  1
  N  N4  1  0.59900230  0.21472265  0.54715761  1
  N  N5  1  0.39327923  0.25124396  0.38513931  1
  N  N6  1  0.09916911  0.28483830  0.95281751  1
  N  N7  1  0.89351434  0.24884440  0.11494991  1
  N  N8  1  0.60139866  0.75855028  0.61084615  1
  N  N9  1  0.39966739  0.74764379  0.42898972  1
  N  N10  1  0.10138188  0.74135268  0.88903498  1
  N  N11  1  0.89969319  0.75263508  0.07067661  1
  H  H12  1  0.55003509  0.39882146  0.46053597  1
  H  H13  1  0.69084391  0.26540728  0.60133317  1
  H  H14  1  0.53283907  0.12775341  0.72548376  1
  H  H15  1  0.33188497  0.31492497  0.32480878  1
  H  H16  1  0.35668457  0.15456380  0.38221322  1
  H  H17  1  0.04958739  0.10091292  0.03957202  1
  H  H18  1  0.19064715  0.23388735  0.89851922  1
  H  H19  1  0.03337309  0.37262623  0.77499703  1
  H  H20  1  0.83218896  0.18537660  0.17564469  1
  H  H21  1  0.85740814  0.34563785  0.11803141  1
  H  H22  1  0.50335947  0.92338055  0.52778698  1
  H  H23  1  0.67268762  0.82016264  0.68329620  1
  H  H24  1  0.60849192  0.65749147  0.61718583  1
  H  H25  1  0.32679953  0.79968586  0.36339418  1
  H  H26  1  0.39203408  0.64519933  0.41125722  1
  H  H27  1  0.00296663  0.57675059  0.97228715  1
  H  H28  1  0.17241951  0.67962965  0.81665137  1
  H  H29  1  0.10870414  0.84238603  0.88250918  1
  H  H30  1  0.82678943  0.70073220  0.13636465  1
  H  H31  1  0.89226143  0.85508234  0.08820306  1
  C  C32  1  0.53574653  0.07388885  0.83556010  1
  C  C33  1  0.03676506  0.42645974  0.66491616  1
  Hf  Hf34  1  0.99296444  0.97470615  0.51214673  1
  Hf  Hf35  1  0.49283905  0.52530831  0.98796203  1
  Br  Br36  1  0.51693691  0.22121741  0.00524169  1
  Br  Br37  1  0.18043993  0.97240034  0.27037231  1
  Br  Br38  1  0.76609985  0.99595983  0.32410807  1
  Br  Br39  1  0.01727527  0.27887662  0.49523759  1
  Br  Br40  1  0.22297394  0.01028844  0.70828652  1
  Br  Br41  1  0.81761755  0.02305309  0.76941997  1
  Br  Br42  1  0.48618443  0.77416583  0.00162334  1
  Br  Br43  1  0.68049898  0.52765905  0.22969484  1
  Br  Br44  1  0.26596473  0.50406940  0.17569789  1
  Br  Br45  1  0.98621471  0.72579987  0.49816314  1
  Br  Br46  1  0.31722458  0.47652112  0.73016045  1
  Br  Br47  1  0.72238669  0.48954662  0.79188267  1
