# generated using pymatgen
data_BaH10C3(Br3N2)2
_symmetry_space_group_name_H-M   'P 1'
_cell_length_a   8.11920135
_cell_length_b   11.25263054
_cell_length_c   8.37256047
_cell_angle_alpha   90.47015196
_cell_angle_beta   90.01196994
_cell_angle_gamma   90.01392483
_symmetry_Int_Tables_number   1
_chemical_formula_structural   BaH10C3(Br3N2)2
_chemical_formula_sum   'Ba2 H20 C6 Br12 N8'
_cell_volume   764.91120133
_cell_formula_units_Z   2
loop_
 _symmetry_equiv_pos_site_id
 _symmetry_equiv_pos_as_xyz
  1  'x, y, z'
loop_
 _atom_site_type_symbol
 _atom_site_label
 _atom_site_symmetry_multiplicity
 _atom_site_fract_x
 _atom_site_fract_y
 _atom_site_fract_z
 _atom_site_occupancy
  C  C0  1  0.47047057  0.25453146  0.51238130  1
  C  C1  1  0.97087431  0.24545406  0.98765671  1
  C  C2  1  0.51342652  0.78720956  0.47687432  1
  C  C3  1  0.01380205  0.71295223  0.02299622  1
  N  N4  1  0.59709882  0.20733142  0.58496455  1
  N  N5  1  0.43025970  0.23490936  0.36180825  1
  N  N6  1  0.09779923  0.29245825  0.91528190  1
  N  N7  1  0.93066222  0.26500686  0.13821895  1
  N  N8  1  0.57309935  0.75573389  0.61511977  1
  N  N9  1  0.38651875  0.73511212  0.40617508  1
  N  N10  1  0.07321002  0.74427737  0.88459424  1
  N  N11  1  0.88676783  0.76493733  0.09361976  1
  H  H12  1  0.39139662  0.31477825  0.58124901  1
  H  H13  1  0.60909141  0.21990427  0.70647224  1
  H  H14  1  0.67488630  0.14999174  0.52667323  1
  H  H15  1  0.33938412  0.28626488  0.31286013  1
  H  H16  1  0.50177514  0.18493910  0.28610784  1
  H  H17  1  0.89158569  0.18544397  0.91860527  1
  H  H18  1  0.10974719  0.27997781  0.79376837  1
  H  H19  1  0.17579779  0.34961551  0.97371831  1
  H  H20  1  0.83943098  0.21385435  0.18695542  1
  H  H21  1  0.00225278  0.31484722  0.21408885  1
  H  H22  1  0.57133673  0.86220446  0.41508949  1
  H  H23  1  0.66139936  0.80847359  0.66913550  1
  H  H24  1  0.51942523  0.68646416  0.67598023  1
  H  H25  1  0.36439699  0.75442224  0.28885587  1
  H  H26  1  0.33211258  0.66072140  0.45289911  1
  H  H27  1  0.07202911  0.63815797  0.08492802  1
  H  H28  1  0.16149610  0.69168930  0.83065037  1
  H  H29  1  0.01917206  0.81340600  0.82360029  1
  H  H30  1  0.86497910  0.74569883  0.21109905  1
  H  H31  1  0.83220153  0.83910219  0.04684744  1
  C  C32  1  0.41334436  0.98152614  0.98836567  1
  C  C33  1  0.91321134  0.51841560  0.51164194  1
  Ba  Ba34  1  0.05198159  0.99139630  0.48316198  1
  Ba  Ba35  1  0.55239035  0.50877827  0.01691817  1
  Br  Br36  1  0.53257439  0.24309060  0.97051075  1
  Br  Br37  1  0.19304171  0.00236970  0.11033266  1
  Br  Br38  1  0.73183094  0.02000050  0.28062017  1
  Br  Br39  1  0.03223759  0.25704092  0.52977666  1
  Br  Br40  1  0.34348830  0.98928301  0.75053717  1
  Br  Br41  1  0.82179546  0.96436702  0.77889871  1
  Br  Br42  1  0.47282486  0.79455594  0.02373661  1
  Br  Br43  1  0.69270327  0.49751221  0.39002628  1
  Br  Br44  1  0.23215335  0.48007040  0.21940072  1
  Br  Br45  1  0.97274137  0.70549622  0.47613477  1
  Br  Br46  1  0.32199088  0.53563121  0.72122041  1
  Br  Br47  1  0.84382342  0.51065776  0.74954698  1
