# generated using pymatgen
data_SnH10C3(Br3N2)2
_symmetry_space_group_name_H-M   'P 1'
_cell_length_a   8.24266985
_cell_length_b   11.12599581
_cell_length_c   8.01277829
_cell_angle_alpha   88.34134300
_cell_angle_beta   89.99938480
_cell_angle_gamma   90.00061526
_symmetry_Int_Tables_number   1
_chemical_formula_structural   SnH10C3(Br3N2)2
_chemical_formula_sum   'Sn2 H20 C6 Br12 N8'
_cell_volume   734.52726018
_cell_formula_units_Z   2
loop_
 _symmetry_equiv_pos_site_id
 _symmetry_equiv_pos_as_xyz
  1  'x, y, z'
loop_
 _atom_site_type_symbol
 _atom_site_label
 _atom_site_symmetry_multiplicity
 _atom_site_fract_x
 _atom_site_fract_y
 _atom_site_fract_z
 _atom_site_occupancy
  C  C0  1  0.49593005  0.28818739  0.49631042  1
  C  C1  1  0.99596570  0.21182124  0.00370686  1
  C  C2  1  0.49925204  0.79271642  0.50051068  1
  C  C3  1  -0.00078341  0.70728448  0.99946939  1
  N  N4  1  0.60508971  0.23619021  0.59274742  1
  N  N5  1  0.39862757  0.23358041  0.39380998  1
  N  N6  1  0.10514069  0.26382113  0.90729727  1
  N  N7  1  0.89866012  0.26641603  0.10621118  1
  N  N8  1  0.60022622  0.74122227  0.60648573  1
  N  N9  1  0.39378785  0.73710801  0.40752821  1
  N  N10  1  0.10019384  0.75878219  0.89351550  1
  N  N11  1  0.89371716  0.76288677  0.09243933  1
  H  H12  1  0.48388369  0.38558035  0.50226156  1
  H  H13  1  0.67511867  0.28802909  0.66699312  1
  H  H14  1  0.62201408  0.14535717  0.60284322  1
  H  H15  1  0.31849821  0.28475612  0.32499062  1
  H  H16  1  0.40398935  0.14394557  0.37134936  1
  H  H17  1  0.98390531  0.11442634  0.99773162  1
  H  H18  1  0.17517061  0.21198909  0.83304785  1
  H  H19  1  0.12207406  0.35465244  0.89722710  1
  H  H20  1  0.81850486  0.21524094  0.17501366  1
  H  H21  1  0.90401645  0.35605262  0.12869149  1
  H  H22  1  0.50448822  0.89043454  0.48786678  1
  H  H23  1  0.67539684  0.79483479  0.67397020  1
  H  H24  1  0.60714680  0.65026144  0.62689385  1
  H  H25  1  0.32565541  0.78741225  0.32508618  1
  H  H26  1  0.37761695  0.64602456  0.40902950  1
  H  H27  1  0.00446098  0.60956569  0.01212345  1
  H  H28  1  0.17539017  0.70517652  0.82604354  1
  H  H29  1  0.10710471  0.84974596  0.87310179  1
  H  H30  1  0.82557803  0.71257767  0.17486612  1
  H  H31  1  0.87753224  0.85396799  0.09092317  1
  C  C32  1  0.43500156  0.97287036  0.99509498  1
  C  C33  1  0.93500070  0.52712587  0.50489404  1
  Sn  Sn34  1  0.99060407  0.00211076  0.49436696  1
  Sn  Sn35  1  0.49061645  0.49789592  0.00563509  1
  Br  Br36  1  0.51014647  0.26294316  0.99416868  1
  Br  Br37  1  0.24850377  0.98140858  0.18060751  1
  Br  Br38  1  0.73203100  0.01304915  0.28283489  1
  Br  Br39  1  0.01011769  0.23706092  0.50586840  1
  Br  Br40  1  0.30853532  0.00493721  0.76543633  1
  Br  Br41  1  0.79735215  0.98296647  0.76834866  1
  Br  Br42  1  0.49115669  0.79453227  0.99914620  1
  Br  Br43  1  0.74849445  0.51858857  0.31938937  1
  Br  Br44  1  0.23204095  0.48696073  0.21717250  1
  Br  Br45  1  0.99117764  0.70545670  0.50082572  1
  Br  Br46  1  0.29735665  0.51703943  0.73166818  1
  Br  Br47  1  0.80853061  0.49506918  0.73456109  1
