# generated using pymatgen
data_GeH6CI3N
_symmetry_space_group_name_H-M   'P 1'
_cell_length_a   8.46989014
_cell_length_b   11.82455435
_cell_length_c   8.39731957
_cell_angle_alpha   89.58986953
_cell_angle_beta   89.73416376
_cell_angle_gamma   89.63909453
_symmetry_Int_Tables_number   1
_chemical_formula_structural   GeH6CI3N
_chemical_formula_sum   'Ge4 H24 C4 I12 N4'
_cell_volume   840.96692068
_cell_formula_units_Z   4
loop_
 _symmetry_equiv_pos_site_id
 _symmetry_equiv_pos_as_xyz
  1  'x, y, z'
loop_
 _atom_site_type_symbol
 _atom_site_label
 _atom_site_symmetry_multiplicity
 _atom_site_fract_x
 _atom_site_fract_y
 _atom_site_fract_z
 _atom_site_occupancy
  C  C0  1  0.44196338  0.25048534  0.43700915  1
  C  C1  1  0.94291560  0.24998705  0.06553907  1
  C  C2  1  0.56005798  0.75066317  0.56591288  1
  C  C3  1  0.05938701  0.75010775  0.93803683  1
  N  N4  1  0.57164830  0.24877148  0.55533016  1
  N  N5  1  0.07356319  0.25197096  0.94707435  1
  N  N6  1  0.43106921  0.75017267  0.44683030  1
  N  N7  1  0.93022118  0.75064588  0.05820455  1
  H  H8  1  0.49421055  0.25099120  0.31757243  1
  H  H9  1  0.37009730  0.17476443  0.45408201  1
  H  H10  1  0.37066790  0.32686675  0.45481227  1
  H  H11  1  0.64261631  0.17773316  0.54057404  1
  H  H12  1  0.64355400  0.31881322  0.54077806  1
  H  H13  1  0.53078576  0.24836283  0.67303797  1
  H  H14  1  0.99435841  0.24739954  0.18478237  1
  H  H15  1  0.87174978  0.17446213  0.04603778  1
  H  H16  1  0.87115144  0.32654401  0.05035497  1
  H  H17  1  0.14528112  0.18107905  0.96042445  1
  H  H18  1  0.14441821  0.32216245  0.96315984  1
  H  H19  1  0.03341872  0.25384910  0.82957558  1
  H  H20  1  0.50714106  0.74995003  0.68500294  1
  H  H21  1  0.63330241  0.67512390  0.54909859  1
  H  H22  1  0.62994883  0.82729055  0.54849617  1
  H  H23  1  0.35761826  0.81994062  0.46046228  1
  H  H24  1  0.36126344  0.67901293  0.46106228  1
  H  H25  1  0.47276644  0.75096807  0.32948521  1
  H  H26  1  0.00674000  0.74896198  0.81930518  1
  H  H27  1  0.12971438  0.82657538  0.95269355  1
  H  H28  1  0.13213625  0.67440338  0.95666814  1
  H  H29  1  0.85766015  0.82083926  0.04334706  1
  H  H30  1  0.85961087  0.67987575  0.04631083  1
  H  H31  1  0.97202383  0.75154094  0.17515049  1
  Ge  Ge32  1  0.47082547  0.99175616  0.98665588  1
  Ge  Ge33  1  0.98468843  0.49244640  0.46697736  1
  Ge  Ge34  1  0.96822318  0.99382105  0.50493404  1
  Ge  Ge35  1  0.50709585  0.49483082  0.96209502  1
  I  I36  1  0.50281773  0.25246865  0.97250586  1
  I  I37  1  0.20903713  0.00915178  0.19417320  1
  I  I38  1  0.70680304  0.00923477  0.30499308  1
  I  I39  1  0.00017671  0.25173689  0.52943535  1
  I  I40  1  0.30309122  0.99300771  0.70279971  1
  I  I41  1  0.80328503  0.99317632  0.79558337  1
  I  I42  1  0.50219364  0.75199976  0.02995225  1
  I  I43  1  0.69988395  0.49228037  0.30458874  1
  I  I44  1  0.19412285  0.49265997  0.20609216  1
  I  I45  1  0.00461464  0.75161531  0.47522429  1
  I  I46  1  0.30304942  0.50889531  0.70351792  1
  I  I47  1  0.79705417  0.51068205  0.80455658  1
