# generated using pymatgen
data_AlPH12C2(I3N)2
_symmetry_space_group_name_H-M   'P 1'
_cell_length_a   8.69637816
_cell_length_b   11.68062429
_cell_length_c   8.39560449
_cell_angle_alpha   88.31921648
_cell_angle_beta   90.37613685
_cell_angle_gamma   90.10459242
_symmetry_Int_Tables_number   1
_chemical_formula_structural   AlPH12C2(I3N)2
_chemical_formula_sum   'Al2 P2 H24 C4 I12 N4'
_cell_volume   852.43173791
_cell_formula_units_Z   2
loop_
 _symmetry_equiv_pos_site_id
 _symmetry_equiv_pos_as_xyz
  1  'x, y, z'
loop_
 _atom_site_type_symbol
 _atom_site_label
 _atom_site_symmetry_multiplicity
 _atom_site_fract_x
 _atom_site_fract_y
 _atom_site_fract_z
 _atom_site_occupancy
  C  C0  1  0.43614653  0.25157095  0.44514160  1
  C  C1  1  0.94005650  0.24855582  0.05924164  1
  C  C2  1  0.56397214  0.74941421  0.55581355  1
  C  C3  1  0.06496453  0.75093770  0.94624656  1
  N  N4  1  0.57710167  0.24589006  0.54651136  1
  N  N5  1  0.08075303  0.25397284  0.95953994  1
  N  N6  1  0.42351447  0.75488796  0.45360068  1
  N  N7  1  0.92774297  0.74598563  0.05112999  1
  H  H8  1  0.47077638  0.25488431  0.31993526  1
  H  H9  1  0.36662932  0.17504585  0.47005247  1
  H  H10  1  0.37148145  0.32841424  0.47369205  1
  H  H11  1  0.64300619  0.17516723  0.51720768  1
  H  H12  1  0.64558780  0.31763743  0.52685591  1
  H  H13  1  0.55192555  0.23937988  0.66767378  1
  H  H14  1  0.97491399  0.24323343  0.18481241  1
  H  H15  1  0.87422542  0.17230916  0.02889479  1
  H  H16  1  0.87179958  0.32578373  0.03491146  1
  H  H17  1  0.14780539  0.18173088  0.98110097  1
  H  H18  1  0.14736871  0.32454707  0.98843814  1
  H  H19  1  0.05520798  0.26021936  0.83814413  1
  H  H20  1  0.52878613  0.74705510  0.68079949  1
  H  H21  1  0.62759590  0.67170358  0.52896989  1
  H  H22  1  0.63438761  0.82529123  0.52973557  1
  H  H23  1  0.35812924  0.82616911  0.47901600  1
  H  H24  1  0.35413886  0.68384665  0.47516883  1
  H  H25  1  0.45000374  0.75945965  0.33238882  1
  H  H26  1  0.02578442  0.75266022  0.82212209  1
  H  H27  1  0.12917497  0.82897103  0.97097031  1
  H  H28  1  0.13614511  0.67539048  0.97150084  1
  H  H29  1  0.85704756  0.81613125  0.02863084  1
  H  H30  1  0.86223553  0.67364512  0.02813997  1
  H  H31  1  0.95680532  0.74399767  0.17188852  1
  Al  Al32  1  0.41473768  0.99833227  0.98745380  1
  Al  Al33  1  0.98252358  0.49559927  0.40704423  1
  P  P34  1  0.95733298  0.99945929  0.52657605  1
  P  P35  1  0.52029222  0.49558242  0.94910822  1
  I  I36  1  0.50964663  0.21181653  0.97941441  1
  I  I37  1  0.19942392  0.00682030  0.20531726  1
  I  I38  1  0.73559187  0.01635008  0.32653769  1
  I  I39  1  0.00084031  0.28932994  0.53457649  1
  I  I40  1  0.28796042  0.98767240  0.70389248  1
  I  I41  1  0.81188607  0.99279487  0.78492166  1
  I  I42  1  0.51350232  0.78846662  0.03192207  1
  I  I43  1  0.70357133  0.49124320  0.28728396  1
  I  I44  1  0.20313781  0.48883082  0.19525967  1
  I  I45  1  0.00251919  0.71101657  0.48454318  1
  I  I46  1  0.32823245  0.50614791  0.72020076  1
  I  I47  1  0.77361097  0.51672695  0.80796914  1
