# generated using pymatgen
data_CdH10C3(Br3N2)2
_symmetry_space_group_name_H-M   'P 1'
_cell_length_a   8.45284072
_cell_length_b   10.28723940
_cell_length_c   8.47395121
_cell_angle_alpha   94.85172453
_cell_angle_beta   90.00008975
_cell_angle_gamma   90.00387620
_symmetry_Int_Tables_number   1
_chemical_formula_structural   CdH10C3(Br3N2)2
_chemical_formula_sum   'Cd2 H20 C6 Br12 N8'
_cell_volume   734.22400696
_cell_formula_units_Z   2
loop_
 _symmetry_equiv_pos_site_id
 _symmetry_equiv_pos_as_xyz
  1  'x, y, z'
loop_
 _atom_site_type_symbol
 _atom_site_label
 _atom_site_symmetry_multiplicity
 _atom_site_fract_x
 _atom_site_fract_y
 _atom_site_fract_z
 _atom_site_occupancy
  C  C0  1  0.52562997  0.28546288  0.50434585  1
  C  C1  1  0.02557480  0.21453841  0.99570135  1
  C  C2  1  0.50427841  0.79119626  0.50762522  1
  C  C3  1  0.00426216  0.70882384  0.99239244  1
  N  N4  1  0.59047728  0.22263093  0.61610243  1
  N  N5  1  0.41762136  0.23797123  0.40451141  1
  N  N6  1  0.09053386  0.27730746  0.88394588  1
  N  N7  1  0.91756361  0.26210618  0.09547321  1
  N  N8  1  0.55728076  0.72330511  0.62066816  1
  N  N9  1  0.40637376  0.74897608  0.39472635  1
  N  N10  1  0.05730437  0.77670430  0.87935290  1
  N  N11  1  0.90627059  0.75103299  0.10521455  1
  H  H12  1  0.56825524  0.38409003  0.49055229  1
  H  H13  1  0.67088791  0.27234287  0.68899861  1
  H  H14  1  0.54649937  0.13573261  0.64734825  1
  H  H15  1  0.37545605  0.29449780  0.32040738  1
  H  H16  1  0.38127067  0.14281565  0.39484452  1
  H  H17  1  0.06810137  0.11589672  0.00955139  1
  H  H18  1  0.17093653  0.22754294  0.81109873  1
  H  H19  1  0.04668139  0.36423150  0.85266998  1
  H  H20  1  0.87531824  0.20563038  0.17959644  1
  H  H21  1  0.88129924  0.35727896  0.10508019  1
  H  H22  1  0.54655745  0.89117049  0.50726454  1
  H  H23  1  0.63599502  0.76502944  0.70058176  1
  H  H24  1  0.52723104  0.62868923  0.63118925  1
  H  H25  1  0.37035832  0.81030092  0.31202691  1
  H  H26  1  0.36338665  0.65573317  0.38251539  1
  H  H27  1  0.04658571  0.60887237  0.99282583  1
  H  H28  1  0.13609252  0.73499585  0.79951302  1
  H  H29  1  0.02721392  0.87129749  0.86876517  1
  H  H30  1  0.87024933  0.68972131  0.18793229  1
  H  H31  1  0.86324735  0.84426085  0.11736666  1
  C  C32  1  0.57047949  0.03395417  0.02306346  1
  C  C33  1  0.07047083  0.46602688  0.47693318  1
  Cd  Cd34  1  0.09564529  0.01028387  0.47693944  1
  Cd  Cd35  1  0.59564049  0.48969447  0.02302163  1
  Br  Br36  1  0.49007095  0.23638085  0.01203856  1
  Br  Br37  1  0.23158088  0.98342509  0.20208372  1
  Br  Br38  1  0.69220303  0.02527017  0.23135906  1
  Br  Br39  1  0.99006909  0.26358402  0.48795056  1
  Br  Br40  1  0.28961827  0.01816613  0.71750479  1
  Br  Br41  1  0.73744444  0.00017855  0.85089625  1
  Br  Br42  1  0.40560499  0.67621452  0.98804285  1
  Br  Br43  1  0.73151990  0.51659047  0.29791414  1
  Br  Br44  1  0.19218942  0.47474657  0.26863777  1
  Br  Br45  1  0.90561170  0.82375174  0.51194329  1
  Br  Br46  1  0.23743676  0.49980860  0.64909268  1
  Br  Br47  1  0.78963955  0.48180067  0.78249503  1
