# generated using pymatgen
data_H10PdC3(Br3N2)2
_symmetry_space_group_name_H-M   'P 1'
_cell_length_a   8.06856633
_cell_length_b   10.38797468
_cell_length_c   8.24944849
_cell_angle_alpha   89.86258190
_cell_angle_beta   90.00316582
_cell_angle_gamma   90.00264496
_symmetry_Int_Tables_number   1
_chemical_formula_structural   H10PdC3(Br3N2)2
_chemical_formula_sum   'H20 Pd2 C6 Br12 N8'
_cell_volume   691.43430176
_cell_formula_units_Z   2
loop_
 _symmetry_equiv_pos_site_id
 _symmetry_equiv_pos_as_xyz
  1  'x, y, z'
loop_
 _atom_site_type_symbol
 _atom_site_label
 _atom_site_symmetry_multiplicity
 _atom_site_fract_x
 _atom_site_fract_y
 _atom_site_fract_z
 _atom_site_occupancy
  C  C0  1  0.50087253  0.29390171  0.49787886  1
  C  C1  1  0.00089445  0.20610629  0.00213345  1
  C  C2  1  0.50920701  0.79228851  0.50371525  1
  C  C3  1  0.00917359  0.70771415  0.99629407  1
  N  N4  1  0.59955695  0.23864151  0.60331614  1
  N  N5  1  0.40754135  0.23554029  0.39052558  1
  N  N6  1  0.09958232  0.26139378  0.89668481  1
  N  N7  1  0.90756654  0.26444540  0.10948062  1
  N  N8  1  0.61218388  0.73407966  0.60245283  1
  N  N9  1  0.40098698  0.73723109  0.40752792  1
  N  N10  1  0.11212657  0.76592127  0.89757311  1
  N  N11  1  0.90092740  0.76276815  0.09248785  1
  H  H12  1  0.49504540  0.39853425  0.49999024  1
  H  H13  1  0.66499117  0.29663165  0.68088572  1
  H  H14  1  0.62366919  0.14200411  0.60707212  1
  H  H15  1  0.33913695  0.29186828  0.31285269  1
  H  H16  1  0.39475748  0.13793718  0.38326161  1
  H  H17  1  0.99509857  0.10146906  -0.00000367  1
  H  H18  1  0.16503164  0.20341576  0.81911508  1
  H  H19  1  0.12368214  0.35803719  0.89294692  1
  H  H20  1  0.83917917  0.20810135  0.18712798  1
  H  H21  1  0.89477174  0.36203885  0.11674821  1
  H  H22  1  0.51434396  0.89696907  0.50140890  1
  H  H23  1  0.69362738  0.79070209  0.66627690  1
  H  H24  1  0.61764015  0.63658167  0.61788890  1
  H  H25  1  0.32626766  0.79542607  0.33843093  1
  H  H26  1  0.38999400  0.64001265  0.39249620  1
  H  H27  1  0.01429468  0.60303036  0.99863174  1
  H  H28  1  0.19356192  0.70931104  0.83375973  1
  H  H29  1  0.11758034  0.86341559  0.88212360  1
  H  H30  1  0.82621367  0.70456413  0.16158963  1
  H  H31  1  0.88993815  0.85998971  0.10750667  1
  C  C32  1  0.37053244  0.99736158  0.99596271  1
  C  C33  1  0.87052672  0.50263341  0.50402188  1
  Pd  Pd34  1  0.00641713  0.00037061  0.50094895  1
  Pd  Pd35  1  0.50640960  0.49962545  0.99904289  1
  Br  Br36  1  0.50330787  0.15168216  0.99912136  1
  Br  Br37  1  0.17774183  0.98475396  0.25370384  1
  Br  Br38  1  0.76090312  0.01369623  0.32237076  1
  Br  Br39  1  0.00327820  0.34831620  0.50087822  1
  Br  Br40  1  0.25812422  0.01953861  0.66797587  1
  Br  Br41  1  0.82536672  0.98655061  0.74397626  1
  Br  Br42  1  0.50792382  0.84548978  0.00059410  1
  Br  Br43  1  0.67773665  0.51522321  0.24630190  1
  Br  Br44  1  0.26090173  0.48630995  0.17761452  1
  Br  Br45  1  0.00793641  0.65450847  0.49937036  1
  Br  Br46  1  0.32535600  0.51347560  0.75600578  1
  Br  Br47  1  0.75811196  0.48045531  0.83203475  1
