# generated using pymatgen
data_SrH10C3(Br3N2)2
_symmetry_space_group_name_H-M   'P 1'
_cell_length_a   8.25400610
_cell_length_b   10.91005667
_cell_length_c   8.18411347
_cell_angle_alpha   90.25701021
_cell_angle_beta   90.00022862
_cell_angle_gamma   89.99649843
_symmetry_Int_Tables_number   1
_chemical_formula_structural   SrH10C3(Br3N2)2
_chemical_formula_sum   'Sr2 H20 C6 Br12 N8'
_cell_volume   736.98570490
_cell_formula_units_Z   2
loop_
 _symmetry_equiv_pos_site_id
 _symmetry_equiv_pos_as_xyz
  1  'x, y, z'
loop_
 _atom_site_type_symbol
 _atom_site_label
 _atom_site_symmetry_multiplicity
 _atom_site_fract_x
 _atom_site_fract_y
 _atom_site_fract_z
 _atom_site_occupancy
  C  C0  1  0.48362792  0.25227706  0.51298929  1
  C  C1  1  0.98376075  0.24770238  0.98697545  1
  C  C2  1  0.49732770  0.80177489  0.47711156  1
  C  C3  1  0.99737636  0.69826998  0.02288192  1
  N  N4  1  0.61757334  0.21472721  0.58232584  1
  N  N5  1  0.43689442  0.22275630  0.36418916  1
  N  N6  1  0.11777481  0.28520766  0.91774697  1
  N  N7  1  0.93696790  0.27724329  0.13579820  1
  N  N8  1  0.57124281  0.76528708  0.60950018  1
  N  N9  1  0.37026762  0.74585089  0.41292716  1
  N  N10  1  0.07116018  0.73472859  0.89037915  1
  N  N11  1  0.87033163  0.75414901  0.08710286  1
  H  H12  1  0.40457351  0.31341680  0.58316443  1
  H  H13  1  0.63439033  0.23295535  0.70456958  1
  H  H14  1  0.69581162  0.15692532  0.52285628  1
  H  H15  1  0.33954716  0.26816688  0.31666004  1
  H  H16  1  0.50848727  0.17332362  0.28574750  1
  H  H17  1  0.90471517  0.18660888  0.91676583  1
  H  H18  1  0.13463064  0.26697364  0.79549759  1
  H  H19  1  0.19600938  0.34296901  0.97724324  1
  H  H20  1  0.83953527  0.23189468  0.18323048  1
  H  H21  1  0.00852077  0.32664992  0.21425039  1
  H  H22  1  0.54478284  0.88306166  0.41504100  1
  H  H23  1  0.65945048  0.81994337  0.66178342  1
  H  H24  1  0.52903882  0.68927840  0.66994155  1
  H  H25  1  0.33774321  0.76699425  0.29606184  1
  H  H26  1  0.32794946  0.66475126  0.45979697  1
  H  H27  1  0.04497422  0.61703114  0.08496859  1
  H  H28  1  0.15937405  0.68009408  0.83807527  1
  H  H29  1  0.02881046  0.81068987  0.82992171  1
  H  H30  1  0.83795104  0.73306918  0.20404708  1
  H  H31  1  0.82790785  0.83522976  0.04023159  1
  C  C32  1  0.39741807  0.98317777  0.99698876  1
  C  C33  1  0.89745603  0.51680960  0.50306595  1
  Sr  Sr34  1  0.03627274  0.98850589  0.49537984  1
  Sr  Sr35  1  0.53631151  0.51154286  0.00466937  1
  Br  Br36  1  0.55176635  0.25047814  0.97516047  1
  Br  Br37  1  0.18094512  0.98959952  0.12920585  1
  Br  Br38  1  0.75172287  0.01678178  0.28171346  1
  Br  Br39  1  0.05168054  0.24956385  0.52490831  1
  Br  Br40  1  0.32446549  0.00071542  0.75540065  1
  Br  Br41  1  0.82376256  0.96802533  0.78160634  1
  Br  Br42  1  0.47433724  0.79574565  0.01980505  1
  Br  Br43  1  0.68100534  0.51031960  0.37084046  1
  Br  Br44  1  0.25174983  0.48321918  0.21832243  1
  Br  Br45  1  0.97430274  0.70428207  0.48018753  1
  Br  Br46  1  0.32382596  0.53200441  0.71842036  1
  Br  Br47  1  0.82448797  0.49929048  0.74464779  1
