# generated using pymatgen
data_GeH10C3(Br3N2)2
_symmetry_space_group_name_H-M   'P 1'
_cell_length_a   8.23152663
_cell_length_b   11.05528129
_cell_length_c   7.93483976
_cell_angle_alpha   88.29165535
_cell_angle_beta   90.01494310
_cell_angle_gamma   89.99095726
_symmetry_Int_Tables_number   1
_chemical_formula_structural   GeH10C3(Br3N2)2
_chemical_formula_sum   'Ge2 H20 C6 Br12 N8'
_cell_volume   721.76405694
_cell_formula_units_Z   2
loop_
 _symmetry_equiv_pos_site_id
 _symmetry_equiv_pos_as_xyz
  1  'x, y, z'
loop_
 _atom_site_type_symbol
 _atom_site_label
 _atom_site_symmetry_multiplicity
 _atom_site_fract_x
 _atom_site_fract_y
 _atom_site_fract_z
 _atom_site_occupancy
  C  C0  1  0.49679457  0.28868605  0.49586069  1
  C  C1  1  0.99668578  0.21152811  0.00437725  1
  C  C2  1  0.49873861  0.79260272  0.50000358  1
  C  C3  1  0.99844718  0.70735100  0.99970965  1
  N  N4  1  0.60680246  0.23809279  0.59405735  1
  N  N5  1  0.39881936  0.23205939  0.39475922  1
  N  N6  1  0.10661141  0.26223064  0.90626574  1
  N  N7  1  0.89866033  0.26803774  0.10552353  1
  N  N8  1  0.60088196  0.74241794  0.60751468  1
  N  N9  1  0.39173534  0.73517684  0.40971336  1
  N  N10  1  0.10082662  0.75739085  0.89240218  1
  N  N11  1  0.89146430  0.76490007  0.08983961  1
  H  H12  1  0.48463224  0.38684219  0.49888090  1
  H  H13  1  0.67683993  0.29193478  0.66696054  1
  H  H14  1  0.62488682  0.14684363  0.60598319  1
  H  H15  1  0.31935299  0.28267990  0.32310153  1
  H  H16  1  0.40319533  0.14141757  0.37530803  1
  H  H17  1  0.98465647  0.11337043  0.00124277  1
  H  H18  1  0.17665786  0.20847561  0.83329571  1
  H  H19  1  0.12458017  0.35348444  0.89443912  1
  H  H20  1  0.81925967  0.21731991  0.17708510  1
  H  H21  1  0.90286675  0.35867742  0.12508851  1
  H  H22  1  0.50422802  0.89074078  0.48330232  1
  H  H23  1  0.67733725  0.79742238  0.67248263  1
  H  H24  1  0.60646811  0.65129037  0.63268290  1
  H  H25  1  0.32246017  0.78440152  0.32576363  1
  H  H26  1  0.37678259  0.64345963  0.41350475  1
  H  H27  1  0.00366240  0.60919114  0.01634820  1
  H  H28  1  0.17726071  0.70227663  0.82760765  1
  H  H29  1  0.10677906  0.84852301  0.86737090  1
  H  H30  1  0.82193218  0.71574794  0.17357902  1
  H  H31  1  0.87662376  0.85662285  0.08595679  1
  C  C32  1  0.43445995  0.97444809  0.99914578  1
  C  C33  1  0.93458404  0.52541200  0.50072752  1
  Ge  Ge34  1  0.97708857  0.00663473  0.49413488  1
  Ge  Ge35  1  0.47719830  0.49305528  0.00611406  1
  Br  Br36  1  0.51080882  0.27286317  0.99578465  1
  Br  Br37  1  0.24561932  0.98110710  0.18379831  1
  Br  Br38  1  0.73738738  0.01448419  0.28836438  1
  Br  Br39  1  0.01101699  0.22680628  0.50445808  1
  Br  Br40  1  0.31027065  0.00666053  0.76679286  1
  Br  Br41  1  0.80247603  0.98455024  0.76033699  1
  Br  Br42  1  0.49287549  0.79633892  1.00132579  1
  Br  Br43  1  0.74566226  0.51883567  0.31605385  1
  Br  Br44  1  0.23747423  0.48551704  0.21170739  1
  Br  Br45  1  0.99305234  0.70346883  0.49837151  1
  Br  Br46  1  0.30263374  0.51538087  0.73978530  1
  Br  Br47  1  0.81048082  0.49330377  0.73319241  1
