# generated using pymatgen
data_ZnH10C3(Br3N2)2
_symmetry_space_group_name_H-M   'P 1'
_cell_length_a   8.28346119
_cell_length_b   10.94175062
_cell_length_c   7.97829829
_cell_angle_alpha   89.36857430
_cell_angle_beta   89.99714782
_cell_angle_gamma   89.99663121
_symmetry_Int_Tables_number   1
_chemical_formula_structural   ZnH10C3(Br3N2)2
_chemical_formula_sum   'Zn2 H20 C6 Br12 N8'
_cell_volume   723.07367252
_cell_formula_units_Z   2
loop_
 _symmetry_equiv_pos_site_id
 _symmetry_equiv_pos_as_xyz
  1  'x, y, z'
loop_
 _atom_site_type_symbol
 _atom_site_label
 _atom_site_symmetry_multiplicity
 _atom_site_fract_x
 _atom_site_fract_y
 _atom_site_fract_z
 _atom_site_occupancy
  C  C0  1  0.50973017  0.28590231  0.49003834  1
  C  C1  1  0.00972143  0.21410155  0.00994498  1
  C  C2  1  0.50106650  0.79714117  0.50059973  1
  C  C3  1  0.00106916  0.70285519  0.99939333  1
  N  N4  1  0.60444256  0.23195383  0.60103109  1
  N  N5  1  0.41165625  0.23055715  0.38792327  1
  N  N6  1  0.10448641  0.26805393  0.89900557  1
  N  N7  1  0.91166030  0.26944731  0.11209083  1
  N  N8  1  0.60199275  0.74440768  0.60479116  1
  N  N9  1  0.39383376  0.74139182  0.40787439  1
  N  N10  1  0.10201263  0.75558982  0.89522101  1
  N  N11  1  0.89381994  0.75860905  0.09211508  1
  H  H12  1  0.51458363  0.38532033  0.48149068  1
  H  H13  1  0.66932385  0.28637722  0.67970867  1
  H  H14  1  0.58757658  0.14341106  0.63899841  1
  H  H15  1  0.34050702  0.28325176  0.31120713  1
  H  H16  1  0.39990437  0.13801324  0.37878716  1
  H  H17  1  0.01450708  0.11468136  0.01840922  1
  H  H18  1  0.16937032  0.21363651  0.82030938  1
  H  H19  1  0.08769506  0.35662267  0.86111125  1
  H  H20  1  0.84046024  0.21675103  0.18875587  1
  H  H21  1  0.89996251  0.36199437  0.12130492  1
  H  H22  1  0.50727271  0.89633373  0.48921218  1
  H  H23  1  0.67922590  0.79818082  0.67196704  1
  H  H24  1  0.60472565  0.65225801  0.62697114  1
  H  H25  1  0.32555578  0.79289535  0.32695593  1
  H  H26  1  0.38125565  0.64868333  0.40278675  1
  H  H27  1  0.00727038  0.60366830  0.01076551  1
  H  H28  1  0.17925804  0.70181513  0.82804775  1
  H  H29  1  0.10475229  0.84774204  0.87305387  1
  H  H30  1  0.82552018  0.70710552  0.17302284  1
  H  H31  1  0.88123097  0.85132311  0.09720997  1
  C  C32  1  0.43559665  0.96976024  0.00321068  1
  C  C33  1  0.93560266  0.53023027  0.49680044  1
  Zn  Zn34  1  0.88815841  0.06053874  0.51677009  1
  Zn  Zn35  1  0.38822589  0.43948859  0.98321687  1
  Br  Br36  1  0.54684050  0.26725062  1.00004515  1
  Br  Br37  1  0.24529818  0.98056557  0.18546324  1
  Br  Br38  1  0.73874770  0.01060848  0.27666279  1
  Br  Br39  1  0.04684461  0.23272494  0.49996294  1
  Br  Br40  1  0.31202480  0.00613749  0.77176030  1
  Br  Br41  1  0.81038461  0.97961085  0.77838177  1
  Br  Br42  1  0.49016184  0.78941961  0.99942081  1
  Br  Br43  1  0.74531185  0.51944535  0.31454065  1
  Br  Br44  1  0.23878693  0.48941660  0.22332459  1
  Br  Br45  1  0.99015734  0.71056195  0.50059044  1
  Br  Br46  1  0.31040849  0.52037246  0.72159741  1
  Br  Br47  1  0.81201879  0.49385552  0.72825216  1
