# generated using pymatgen
data_CaH10C3(Br3N2)2
_symmetry_space_group_name_H-M   'P 1'
_cell_length_a   8.24707323
_cell_length_b   10.82411954
_cell_length_c   8.12917617
_cell_angle_alpha   89.74097592
_cell_angle_beta   89.99906828
_cell_angle_gamma   89.99934591
_symmetry_Int_Tables_number   1
_chemical_formula_structural   CaH10C3(Br3N2)2
_chemical_formula_sum   'Ca2 H20 C6 Br12 N8'
_cell_volume   725.66224505
_cell_formula_units_Z   2
loop_
 _symmetry_equiv_pos_site_id
 _symmetry_equiv_pos_as_xyz
  1  'x, y, z'
loop_
 _atom_site_type_symbol
 _atom_site_label
 _atom_site_symmetry_multiplicity
 _atom_site_fract_x
 _atom_site_fract_y
 _atom_site_fract_z
 _atom_site_occupancy
  C  C0  1  0.48703524  0.26298202  0.50499746  1
  C  C1  1  0.98701082  0.23703867  0.99499932  1
  C  C2  1  0.49354741  0.80344354  0.48738216  1
  C  C3  1  0.99354656  0.69655786  0.01262573  1
  N  N4  1  0.61062876  0.21698131  0.58611010  1
  N  N5  1  0.44206794  0.22862646  0.35718801  1
  N  N6  1  0.11062523  0.28302793  0.91389050  1
  N  N7  1  0.94206626  0.27137429  0.14282610  1
  N  N8  1  0.58028553  0.75559749  0.60649906  1
  N  N9  1  0.37558632  0.74544479  0.41105979  1
  N  N10  1  0.08027974  0.74439867  0.89350374  1
  N  N11  1  0.87558116  0.75455838  0.08894538  1
  H  H12  1  0.41646326  0.33584018  0.56452519  1
  H  H13  1  0.62632368  0.24105900  0.70749799  1
  H  H14  1  0.67999974  0.14758234  0.53870421  1
  H  H15  1  0.35100879  0.27674268  0.30080416  1
  H  H16  1  0.50658418  0.16613874  0.28957883  1
  H  H17  1  0.91640989  0.16421404  0.93544711  1
  H  H18  1  0.12630864  0.25896819  0.79250123  1
  H  H19  1  0.18002639  0.35239690  0.96132537  1
  H  H20  1  0.85098968  0.22326875  0.19919816  1
  H  H21  1  0.00661013  0.33383117  0.21045459  1
  H  H22  1  0.52399526  0.89675849  0.44595715  1
  H  H23  1  0.66372468  0.81027460  0.66622532  1
  H  H24  1  0.55347099  0.66945187  0.65167797  1
  H  H25  1  0.32204718  0.78627674  0.31173581  1
  H  H26  1  0.34286097  0.65645441  0.43868410  1
  H  H27  1  0.02399833  0.60324514  0.05406090  1
  H  H28  1  0.16372564  0.68971880  0.83377840  1
  H  H29  1  0.05346206  0.83054140  0.84831564  1
  H  H30  1  0.82204233  0.71373115  0.18827579  1
  H  H31  1  0.84285130  0.84354642  0.06131365  1
  C  C32  1  0.40630778  0.97493116  0.99723836  1
  C  C33  1  0.90630248  0.52506751  0.50275773  1
  Ca  Ca34  1  0.00171817  0.98756620  0.49141725  1
  Ca  Ca35  1  0.50173290  0.51243256  0.00856821  1
  Br  Br36  1  0.55840724  0.26652577  0.97691284  1
  Br  Br37  1  0.19943418  0.98014039  0.16027570  1
  Br  Br38  1  0.74103960  0.01403709  0.27711802  1
  Br  Br39  1  0.05841353  0.23346878  0.52310054  1
  Br  Br40  1  0.31148782  0.99965443  0.76781115  1
  Br  Br41  1  0.81693218  0.97114514  0.77632500  1
  Br  Br42  1  0.48908168  0.78898868  0.01123605  1
  Br  Br43  1  0.69943094  0.51986768  0.33973680  1
  Br  Br44  1  0.24105715  0.48596062  0.22288290  1
  Br  Br45  1  0.98908808  0.71100477  0.48876136  1
  Br  Br46  1  0.31693428  0.52885153  0.72367524  1
  Br  Br47  1  0.81148727  0.50034829  0.73219870  1
