# generated using pymatgen
data_SiH10C3(Br3N2)2
_symmetry_space_group_name_H-M   'P 1'
_cell_length_a   7.96104899
_cell_length_b   11.09323356
_cell_length_c   8.12792441
_cell_angle_alpha   90.53503056
_cell_angle_beta   90.00422500
_cell_angle_gamma   89.99924998
_symmetry_Int_Tables_number   1
_chemical_formula_structural   SiH10C3(Br3N2)2
_chemical_formula_sum   'Si2 H20 C6 Br12 N8'
_cell_volume   717.77639611
_cell_formula_units_Z   2
loop_
 _symmetry_equiv_pos_site_id
 _symmetry_equiv_pos_as_xyz
  1  'x, y, z'
loop_
 _atom_site_type_symbol
 _atom_site_label
 _atom_site_symmetry_multiplicity
 _atom_site_fract_x
 _atom_site_fract_y
 _atom_site_fract_z
 _atom_site_occupancy
  C  C0  1  0.49391916  0.29249446  0.49622023  1
  C  C1  1  0.99396678  0.20747931  0.00381152  1
  C  C2  1  0.50664032  0.79041401  0.50677700  1
  C  C3  1  0.00654274  0.70959817  0.99319442  1
  N  N4  1  0.59623254  0.23856126  0.59798345  1
  N  N5  1  0.39330453  0.23863426  0.39163104  1
  N  N6  1  0.09628784  0.26142825  0.90208918  1
  N  N7  1  0.89334637  0.26131981  0.10840251  1
  N  N8  1  0.60682472  0.73694051  0.61082051  1
  N  N9  1  0.40325861  0.73641318  0.40461608  1
  N  N10  1  0.10671185  0.76308370  0.88914906  1
  N  N11  1  0.90317525  0.76358713  0.09535379  1
  H  H12  1  0.49217888  0.39067235  0.49950413  1
  H  H13  1  0.67126763  0.29049281  0.67201620  1
  H  H14  1  0.60787767  0.14722089  0.60726890  1
  H  H15  1  0.31493302  0.28997441  0.32188456  1
  H  H16  1  0.38616261  0.14718595  0.37673273  1
  H  H17  1  0.99222674  0.10930284  0.00049114  1
  H  H18  1  0.17131426  0.20950497  0.82804134  1
  H  H19  1  0.10793596  0.35276934  0.89282998  1
  H  H20  1  0.81497050  0.20996235  0.17810958  1
  H  H21  1  0.88618823  0.35276500  0.12332503  1
  H  H22  1  0.50949589  0.88856431  0.50465503  1
  H  H23  1  0.68406403  0.78968992  0.68160477  1
  H  H24  1  0.61681877  0.64555164  0.62205495  1
  H  H25  1  0.32905424  0.78845542  0.33115995  1
  H  H26  1  0.38679670  0.64523602  0.39709874  1
  H  H27  1  0.00941047  0.61144894  0.99529704  1
  H  H28  1  0.18393391  0.71034321  0.81835205  1
  H  H29  1  0.11668014  0.85447176  0.87791908  1
  H  H30  1  0.82898679  0.71153424  0.16880590  1
  H  H31  1  0.88669627  0.85476523  0.10288993  1
  C  C32  1  0.48755081  0.97175098  0.05794683  1
  C  C33  1  0.98757994  0.52827731  0.44204427  1
  Si  Si34  1  0.01062924  0.01545704  0.52457521  1
  Si  Si35  1  0.51068252  0.48460128  0.97542088  1
  Br  Br36  1  0.49221368  0.27436849  0.99684761  1
  Br  Br37  1  0.26066146  0.98198037  0.19963893  1
  Br  Br38  1  0.68057217  0.00463110  0.23911488  1
  Br  Br39  1  0.99217519  0.22569480  0.50325123  1
  Br  Br40  1  0.25959135  0.01483801  0.70160915  1
  Br  Br41  1  0.80450264  0.98972684  0.74772932  1
  Br  Br42  1  0.50562962  0.79294335  0.01034839  1
  Br  Br43  1  0.76066598  0.51803728  0.30034527  1
  Br  Br44  1  0.18055684  0.49536347  0.26089377  1
  Br  Br45  1  0.00569419  0.70709159  0.48959912  1
  Br  Br46  1  0.30450244  0.51029342  0.75228543  1
  Br  Br47  1  0.75960785  0.48514200  0.79836464  1
