# generated using pymatgen
data_MgH10C3(Br3N2)2
_symmetry_space_group_name_H-M   'P 1'
_cell_length_a   8.49763809
_cell_length_b   10.17572589
_cell_length_c   8.43088539
_cell_angle_alpha   94.90656430
_cell_angle_beta   90.00059138
_cell_angle_gamma   90.00367623
_symmetry_Int_Tables_number   1
_chemical_formula_structural   MgH10C3(Br3N2)2
_chemical_formula_sum   'Mg2 H20 C6 Br12 N8'
_cell_volume   726.34411341
_cell_formula_units_Z   2
loop_
 _symmetry_equiv_pos_site_id
 _symmetry_equiv_pos_as_xyz
  1  'x, y, z'
loop_
 _atom_site_type_symbol
 _atom_site_label
 _atom_site_symmetry_multiplicity
 _atom_site_fract_x
 _atom_site_fract_y
 _atom_site_fract_z
 _atom_site_occupancy
  C  C0  1  0.52574175  0.28757797  0.50425510  1
  C  C1  1  0.02566189  0.21242354  0.99579708  1
  C  C2  1  0.50850503  0.78788687  0.50791437  1
  C  C3  1  0.00851727  0.71213464  0.99210528  1
  N  N4  1  0.58925191  0.22355124  0.61645140  1
  N  N5  1  0.41750450  0.24044723  0.40411429  1
  N  N6  1  0.08925550  0.27638252  0.88357984  1
  N  N7  1  0.91742824  0.25963247  0.09587911  1
  N  N8  1  0.56445677  0.71877745  0.61960412  1
  N  N9  1  0.40802696  0.74592498  0.39703125  1
  N  N10  1  0.06450844  0.78123548  0.88042427  1
  N  N11  1  0.90794861  0.75408022  0.10290248  1
  H  H12  1  0.56955680  0.38678174  0.49019698  1
  H  H13  1  0.67029637  0.27255144  0.68971717  1
  H  H14  1  0.54512050  0.13558797  0.64684519  1
  H  H15  1  0.37827387  0.29678135  0.31769177  1
  H  H16  1  0.38102519  0.14421109  0.39404161  1
  H  H17  1  0.06940084  0.11321194  0.00992501  1
  H  H18  1  0.17029355  0.22733062  0.81036014  1
  H  H19  1  0.04522015  0.36436008  0.85314451  1
  H  H20  1  0.87814262  0.20335656  0.18233997  1
  H  H21  1  0.88102550  0.35588299  0.10588320  1
  H  H22  1  0.55079422  0.88881589  0.50694792  1
  H  H23  1  0.64641142  0.76005559  0.69659535  1
  H  H24  1  0.53317683  0.62383410  0.63264705  1
  H  H25  1  0.36825728  0.80901431  0.31691331  1
  H  H26  1  0.36544834  0.65166845  0.38473276  1
  H  H27  1  0.05085612  0.61122973  0.99314812  1
  H  H28  1  0.14655340  0.73998312  0.80352658  1
  H  H29  1  0.03318845  0.87615567  0.86731089  1
  H  H30  1  0.86816575  0.69100003  0.18302970  1
  H  H31  1  0.86532495  0.84831847  0.11513390  1
  C  C32  1  0.56548386  0.03208348  0.02248747  1
  C  C33  1  0.06548377  0.46789257  0.47750299  1
  Mg  Mg34  1  0.09692342  0.01700385  0.47775812  1
  Mg  Mg35  1  0.59692445  0.48297330  0.02221388  1
  Br  Br36  1  0.48145766  0.24700374  0.00992811  1
  Br  Br37  1  0.22480018  0.98333094  0.21459192  1
  Br  Br38  1  0.68361042  0.02392664  0.23070570  1
  Br  Br39  1  0.98145315  0.25296223  0.49005922  1
  Br  Br40  1  0.28566285  0.01848936  0.70288437  1
  Br  Br41  1  0.73229468  0.00023910  0.85237956  1
  Br  Br42  1  0.40813610  0.65727861  0.98761879  1
  Br  Br43  1  0.72474869  0.51669251  0.28541336  1
  Br  Br44  1  0.18361157  0.47606909  0.26928412  1
  Br  Br45  1  0.90811474  0.84270201  0.51236103  1
  Br  Br46  1  0.23229088  0.49973789  0.64760974  1
  Br  Br47  1  0.78568388  0.48149192  0.79711668  1
