# generated using pymatgen
data_H10C3Br6N5
_symmetry_space_group_name_H-M   'P 1'
_cell_length_a   8.17185597
_cell_length_b   9.75126688
_cell_length_c   8.52363530
_cell_angle_alpha   96.01376693
_cell_angle_beta   87.44332029
_cell_angle_gamma   90.33953988
_symmetry_Int_Tables_number   1
_chemical_formula_structural   H10C3Br6N5
_chemical_formula_sum   'H20 C6 Br12 N10'
_cell_volume   674.80316196
_cell_formula_units_Z   2
loop_
 _symmetry_equiv_pos_site_id
 _symmetry_equiv_pos_as_xyz
  1  'x, y, z'
loop_
 _atom_site_type_symbol
 _atom_site_label
 _atom_site_symmetry_multiplicity
 _atom_site_fract_x
 _atom_site_fract_y
 _atom_site_fract_z
 _atom_site_occupancy
  C  C0  1  0.54008781  0.24207530  0.46688561  1
  C  C1  1  0.04534484  0.25200507  0.02952654  1
  C  C2  1  0.48739197  0.78959118  0.50698219  1
  C  C3  1  0.98267041  0.71254814  0.00416366  1
  N  N4  1  0.53768512  0.14775791  0.56686598  1
  N  N5  1  0.42632608  0.25692566  0.36758833  1
  N  N6  1  0.03323504  0.34103443  0.92448004  1
  N  N7  1  0.94080014  0.24117918  0.14787597  1
  N  N8  1  0.61354608  0.72162532  0.54935294  1
  N  N9  1  0.43248004  0.77849391  0.36426690  1
  N  N10  1  0.10744843  0.77885358  0.94499302  1
  N  N11  1  0.92572367  0.73432830  0.15047552  1
  H  H12  1  0.64446415  0.31251133  0.46531374  1
  H  H13  1  0.62726115  0.14606045  0.64603079  1
  H  H14  1  0.43357229  0.09195474  0.58494942  1
  H  H15  1  0.44424221  0.33268709  0.29398264  1
  H  H16  1  0.33002689  0.18850163  0.35009364  1
  H  H17  1  0.15035350  0.18235778  0.01828080  1
  H  H18  1  0.11315757  0.33588743  0.82870305  1
  H  H19  1  0.92778941  0.39624167  0.91864488  1
  H  H20  1  0.96845447  0.17066250  0.22396294  1
  H  H21  1  0.84553542  0.31052524  0.17569664  1
  H  H22  1  0.42356952  0.86007945  0.59731759  1
  H  H23  1  0.63653015  0.72748892  0.66671218  1
  H  H24  1  0.66547845  0.64271068  0.47343392  1
  H  H25  1  0.33858819  0.84140111  0.33677432  1
  H  H26  1  0.48445593  0.70996014  0.27695374  1
  H  H27  1  0.92122125  0.63487841  0.92544911  1
  H  H28  1  0.14407425  0.75632362  0.82950417  1
  H  H29  1  0.16604174  0.85543130  0.01336707  1
  H  H30  1  0.83453149  0.67016212  0.18904491  1
  H  H31  1  0.97833526  0.80788830  0.22787220  1
  C  C32  1  0.61004150  0.01437917  0.98738958  1
  C  C33  1  0.12497448  0.51201212  0.49820981  1
  N  N34  1  0.95063221  0.04470553  0.64654633  1
  N  N35  1  0.48246390  0.52459640  0.87664224  1
  Br  Br36  1  0.49059925  0.18442966  0.97456461  1
  Br  Br37  1  0.16613156  0.99991496  0.26846661  1
  Br  Br38  1  0.68136916  0.00441533  0.19884663  1
  Br  Br39  1  0.99345761  0.34331117  0.52880999  1
  Br  Br40  1  0.16951834  0.03692397  0.71800651  1
  Br  Br41  1  0.79060161  0.97988844  0.79923259  1
  Br  Br42  1  0.51540694  0.72315521  0.93633441  1
  Br  Br43  1  0.67644267  0.49386645  0.23869256  1
  Br  Br44  1  0.20150557  0.50606938  0.27460131  1
  Br  Br45  1  0.00134937  0.68609532  0.54670038  1
  Br  Br46  1  0.30629198  0.51659459  0.66802999  1
  Br  Br47  1  0.68881028  0.45957343  0.77348678  1
