# generated using pymatgen
data_BiH10C2Br6N5
_symmetry_space_group_name_H-M   'P 1'
_cell_length_a   8.18876336
_cell_length_b   10.17948390
_cell_length_c   8.85250787
_cell_angle_alpha   98.97232552
_cell_angle_beta   89.98813144
_cell_angle_gamma   89.99774208
_symmetry_Int_Tables_number   1
_chemical_formula_structural   BiH10C2Br6N5
_chemical_formula_sum   'Bi2 H20 C4 Br12 N10'
_cell_volume   728.89251647
_cell_formula_units_Z   2
loop_
 _symmetry_equiv_pos_site_id
 _symmetry_equiv_pos_as_xyz
  1  'x, y, z'
loop_
 _atom_site_type_symbol
 _atom_site_label
 _atom_site_symmetry_multiplicity
 _atom_site_fract_x
 _atom_site_fract_y
 _atom_site_fract_z
 _atom_site_occupancy
  C  C0  1  0.52345277  0.28835985  0.49650624  1
  C  C1  1  0.02451488  0.21188671  0.00358178  1
  C  C2  1  0.52501185  0.79183953  0.50665827  1
  C  C3  1  0.02479221  0.70821666  0.99337599  1
  N  N4  1  0.54819342  0.21647545  0.60541078  1
  N  N5  1  0.40392519  0.27087394  0.39714533  1
  N  N6  1  0.04832010  0.28363954  0.89436192  1
  N  N7  1  0.90476914  0.22858221  0.10276999  1
  N  N8  1  0.57391060  0.71796248  0.60783565  1
  N  N9  1  0.41176645  0.75921448  0.40367661  1
  N  N10  1  0.07335514  0.78212770  0.89211706  1
  N  N11  1  0.91160179  0.74074256  0.09650795  1
  H  H12  1  0.61137585  0.36698937  0.48555346  1
  H  H13  1  0.64195984  0.24132041  0.68005073  1
  H  H14  1  0.46592442  0.14679143  0.63068280  1
  H  H15  1  0.40049368  0.32622837  0.31073264  1
  H  H16  1  0.32086651  0.19472876  0.39030547  1
  H  H17  1  0.11342399  0.13403830  0.01487375  1
  H  H18  1  0.14237658  0.25942057  0.81987458  1
  H  H19  1  0.96539084  0.35277276  0.86897286  1
  H  H20  1  0.90232905  0.17365103  0.18960335  1
  H  H21  1  0.82067018  0.30392392  0.10919766  1
  H  H22  1  0.58852360  0.88647287  0.51043572  1
  H  H23  1  0.65766501  0.75780259  0.68731970  1
  H  H24  1  0.51706038  0.63148765  0.62302607  1
  H  H25  1  0.37914994  0.82929259  0.33780150  1
  H  H26  1  0.32769899  0.67706532  0.41123907  1
  H  H27  1  0.08850012  0.61366765  0.98954386  1
  H  H28  1  0.15719785  0.74245545  0.81260101  1
  H  H29  1  0.01635882  0.86856580  0.87701859  1
  H  H30  1  0.87918634  0.67067063  0.16245818  1
  H  H31  1  0.82752569  0.82288662  0.08902123  1
  N  N32  1  0.69249284  0.93377006  0.06759068  1
  N  N33  1  0.19256893  0.56621605  0.43247809  1
  Bi  Bi34  1  0.99754411  0.99123919  0.49321682  1
  Bi  Bi35  1  0.49785584  0.50877709  0.00690952  1
  Br  Br36  1  0.47615942  0.24037454  0.99256250  1
  Br  Br37  1  0.19983545  0.99277840  0.23439372  1
  Br  Br38  1  0.67605202  0.01436818  0.28091574  1
  Br  Br39  1  0.97600473  0.25957527  0.50725152  1
  Br  Br40  1  0.25635430  0.00755878  0.69376157  1
  Br  Br41  1  0.79470679  0.99049763  0.75229882  1
  Br  Br42  1  0.50769727  0.82300517  0.00282873  1
  Br  Br43  1  0.70009920  0.50684520  0.26549101  1
  Br  Br44  1  0.17630235  0.48581499  0.21904219  1
  Br  Br45  1  0.00764762  0.67685577  0.49720342  1
  Br  Br46  1  0.29493642  0.50986550  0.74788214  1
  Br  Br47  1  0.75647083  0.49236797  0.80601846  1
