# generated using pymatgen
data_SiH12PbC2(I3N)2
_symmetry_space_group_name_H-M   'P 1'
_cell_length_a   8.48739947
_cell_length_b   12.11933850
_cell_length_c   8.33035692
_cell_angle_alpha   88.70264481
_cell_angle_beta   90.00285448
_cell_angle_gamma   90.01200145
_symmetry_Int_Tables_number   1
_chemical_formula_structural   SiH12PbC2(I3N)2
_chemical_formula_sum   'Si2 H24 Pb2 C4 I12 N4'
_cell_volume   856.65472664
_cell_formula_units_Z   2
loop_
 _symmetry_equiv_pos_site_id
 _symmetry_equiv_pos_as_xyz
  1  'x, y, z'
loop_
 _atom_site_type_symbol
 _atom_site_label
 _atom_site_symmetry_multiplicity
 _atom_site_fract_x
 _atom_site_fract_y
 _atom_site_fract_z
 _atom_site_occupancy
  C  C0  1  0.40017375  0.24956653  0.41671455  1
  C  C1  1  0.90110559  0.25051925  0.08414685  1
  C  C2  1  0.59982584  0.75044025  0.58330382  1
  C  C3  1  0.09889805  0.74947982  0.91586482  1
  N  N4  1  0.54112946  0.24906938  0.52205598  1
  N  N5  1  0.04150265  0.25093028  0.97805318  1
  N  N6  1  0.45886904  0.75093649  0.47796409  1
  N  N7  1  0.95850059  0.74906645  0.02195746  1
  H  H8  1  0.43917269  0.25055855  0.29137818  1
  H  H9  1  0.33171184  0.17480720  0.44232567  1
  H  H10  1  0.33021652  0.32309254  0.44060225  1
  H  H11  1  0.61013121  0.18027954  0.49921158  1
  H  H12  1  0.60944524  0.31899153  0.49858716  1
  H  H13  1  0.51156338  0.24722750  0.64378820  1
  H  H14  1  0.94073683  0.24955766  0.20924935  1
  H  H15  1  0.83089719  0.17700976  0.06067417  1
  H  H16  1  0.83261880  0.32531368  0.05884836  1
  H  H17  1  0.10984128  0.18097607  0.00129922  1
  H  H18  1  0.11073523  0.31970133  0.00055173  1
  H  H19  1  0.01139892  0.25273881  0.85651500  1
  H  H20  1  0.56082831  0.74945257  0.70863974  1
  H  H21  1  0.66978082  0.67691298  0.55942162  1
  H  H22  1  0.66828878  0.82519909  0.55768571  1
  H  H23  1  0.38986733  0.81972448  0.50080626  1
  H  H24  1  0.39055446  0.68101168  0.50144325  1
  H  H25  1  0.48843114  0.75277433  0.35623179  1
  H  H26  1  0.05926742  0.75044263  0.79076219  1
  H  H27  1  0.16910553  0.82298948  0.93933941  1
  H  H28  1  0.16738684  0.67468579  0.94115908  1
  H  H29  1  0.89016126  0.81902027  0.99871207  1
  H  H30  1  0.88926983  0.68029346  0.99945385  1
  H  H31  1  0.98860379  0.74725788  0.14349514  1
  Si  Si32  1  0.49997726  0.00000296  0.99999566  1
  Si  Si33  1  0.99997928  0.50001931  0.49988472  1
  Pb  Pb34  1  0.99997605  0.00002150  0.50001811  1
  Pb  Pb35  1  0.50003894  0.50001170  0.99993119  1
  I  I36  1  0.47857269  0.23944604  0.94745611  1
  I  I37  1  0.20046774  0.00787793  0.17431550  1
  I  I38  1  0.67498618  0.01531819  0.30428245  1
  I  I39  1  0.97801020  0.26053736  0.55299928  1
  I  I40  1  0.32502148  0.98468442  0.69575153  1
  I  I41  1  0.79954871  0.99211750  0.82570627  1
  I  I42  1  0.52142543  0.76055298  0.05256943  1
  I  I43  1  0.70054534  0.49205542  0.32559439  1
  I  I44  1  0.17509210  0.48471257  0.19585385  1
  I  I45  1  0.02198838  0.73944929  0.44701145  1
  I  I46  1  0.29950500  0.50795838  0.67445856  1
  I  I47  1  0.82486935  0.51528548  0.80422633  1
