# generated using pymatgen
data_TlH10C2Br6N5
_symmetry_space_group_name_H-M   'P 1'
_cell_length_a   8.25870583
_cell_length_b   10.86686152
_cell_length_c   8.10787934
_cell_angle_alpha   88.59036643
_cell_angle_beta   90.00721876
_cell_angle_gamma   90.00552569
_symmetry_Int_Tables_number   1
_chemical_formula_structural   TlH10C2Br6N5
_chemical_formula_sum   'Tl2 H20 C4 Br12 N10'
_cell_volume   727.43124263
_cell_formula_units_Z   2
loop_
 _symmetry_equiv_pos_site_id
 _symmetry_equiv_pos_as_xyz
  1  'x, y, z'
loop_
 _atom_site_type_symbol
 _atom_site_label
 _atom_site_symmetry_multiplicity
 _atom_site_fract_x
 _atom_site_fract_y
 _atom_site_fract_z
 _atom_site_occupancy
  C  C0  1  0.48645762  0.26363858  0.50592956  1
  C  C1  1  0.98639425  0.23636857  0.99405464  1
  C  C2  1  0.49211987  0.79400259  0.48601443  1
  C  C3  1  0.99214827  0.70599690  0.01398224  1
  N  N4  1  0.61928289  0.21921384  0.57305095  1
  N  N5  1  0.43154285  0.23433398  0.36012517  1
  N  N6  1  0.11919572  0.28080941  0.92692354  1
  N  N7  1  0.93153825  0.26564462  0.13988049  1
  N  N8  1  0.58110940  0.75320140  0.60957582  1
  N  N9  1  0.37621464  0.73093138  0.41638173  1
  N  N10  1  0.08112188  0.74681171  0.89043872  1
  N  N11  1  0.87627144  0.76906277  0.08362252  1
  H  H12  1  0.41716942  0.33055841  0.57593448  1
  H  H13  1  0.64365820  0.23867228  0.69365180  1
  H  H14  1  0.68685699  0.15403631  0.51570138  1
  H  H15  1  0.33192770  0.27989823  0.31522919  1
  H  H16  1  0.49208871  0.17531012  0.28536042  1
  H  H17  1  0.91706841  0.16945302  0.92404823  1
  H  H18  1  0.14350850  0.26137856  0.80630166  1
  H  H19  1  0.18680430  0.34598951  0.98427585  1
  H  H20  1  0.83196027  0.22003796  0.18478266  1
  H  H21  1  0.99211237  0.32465917  0.21465147  1
  H  H22  1  0.51930265  0.88570364  0.43466285  1
  H  H23  1  0.66383851  0.81145435  0.66214797  1
  H  H24  1  0.55600359  0.66985305  0.66564216  1
  H  H25  1  0.31572704  0.76938784  0.31844322  1
  H  H26  1  0.34310531  0.64455469  0.45679162  1
  H  H27  1  0.01930746  0.61429151  0.06532721  1
  H  H28  1  0.16383832  0.68856746  0.83786930  1
  H  H29  1  0.05598979  0.83014836  0.83434776  1
  H  H30  1  0.81573119  0.73055902  0.18148310  1
  H  H31  1  0.84312152  0.85541275  0.04314404  1
  N  N32  1  0.41293220  0.96594117  0.99047308  1
  N  N33  1  0.91282930  0.53411342  0.50964349  1
  Tl  Tl34  1  0.01183468  0.99349029  0.46221544  1
  Tl  Tl35  1  0.51179924  0.50644505  0.03784911  1
  Br  Br36  1  0.54955163  0.25764939  0.96687057  1
  Br  Br37  1  0.23184826  0.97471872  0.17844085  1
  Br  Br38  1  0.71911672  0.01768496  0.26842663  1
  Br  Br39  1  0.04961739  0.24233182  0.53313401  1
  Br  Br40  1  0.31714240  0.00224464  0.77693799  1
  Br  Br41  1  0.82034095  0.97350850  0.76280836  1
  Br  Br42  1  0.48113094  0.78948479  0.00477928  1
  Br  Br43  1  0.73169636  0.52530942  0.32142408  1
  Br  Br44  1  0.21914445  0.48233768  0.23159718  1
  Br  Br45  1  0.98101549  0.71053839  0.49529621  1
  Br  Br46  1  0.32040876  0.52651531  0.73729544  1
  Br  Br47  1  0.81709322  0.49780742  0.72313687  1
