# generated using pymatgen
data_AgH10C2Br6N5
_symmetry_space_group_name_H-M   'P 1'
_cell_length_a   8.06729312
_cell_length_b   10.54005452
_cell_length_c   8.23206967
_cell_angle_alpha   89.80265081
_cell_angle_beta   90.02623798
_cell_angle_gamma   89.99714583
_symmetry_Int_Tables_number   1
_chemical_formula_structural   AgH10C2Br6N5
_chemical_formula_sum   'Ag2 H20 C4 Br12 N10'
_cell_volume   699.96626446
_cell_formula_units_Z   2
loop_
 _symmetry_equiv_pos_site_id
 _symmetry_equiv_pos_as_xyz
  1  'x, y, z'
loop_
 _atom_site_type_symbol
 _atom_site_label
 _atom_site_symmetry_multiplicity
 _atom_site_fract_x
 _atom_site_fract_y
 _atom_site_fract_z
 _atom_site_occupancy
  C  C0  1  0.49839663  0.25009633  0.49826495  1
  C  C1  1  0.99844068  0.24992615  1.00164978  1
  C  C2  1  0.48650638  0.82080212  0.50280691  1
  C  C3  1  0.98647158  0.67917570  0.99723123  1
  N  N4  1  0.61833570  0.20324230  0.58775718  1
  N  N5  1  0.47036105  0.22056339  0.34609238  1
  N  N6  1  0.11836133  0.29674913  0.91227254  1
  N  N7  1  0.97042001  0.27945020  0.15382420  1
  N  N8  1  0.56495981  0.76833964  0.62492745  1
  N  N9  1  0.36102887  0.76843949  0.42630903  1
  N  N10  1  0.06491478  0.73162108  0.87517719  1
  N  N11  1  0.86104496  0.73157265  0.07369053  1
  H  H12  1  0.41632034  0.31950926  0.55513554  1
  H  H13  1  0.62571894  0.22855424  0.70833482  1
  H  H14  1  0.70250131  0.13966989  0.54424514  1
  H  H15  1  0.37811035  0.26766789  0.28644738  1
  H  H16  1  0.54538542  0.15961992  0.28291970  1
  H  H17  1  0.91632817  0.18053423  0.94473252  1
  H  H18  1  0.12573315  0.27144370  0.79169924  1
  H  H19  1  0.20254281  0.36029963  0.95584485  1
  H  H20  1  0.87813557  0.23239698  0.21338601  1
  H  H21  1  0.04545507  0.34039421  0.21704432  1
  H  H22  1  0.52968850  0.91315054  0.45953484  1
  H  H23  1  0.65516687  0.81972331  0.68410259  1
  H  H24  1  0.52569001  0.68266366  0.67107774  1
  H  H25  1  0.31381729  0.81144258  0.32537154  1
  H  H26  1  0.32088084  0.67844497  0.45232754  1
  H  H27  1  0.02961043  0.58679217  0.04051308  1
  H  H28  1  0.15506116  0.68021500  0.81601927  1
  H  H29  1  0.02566910  0.81732401  0.82902254  1
  H  H30  1  0.81386089  0.68857794  0.17460490  1
  H  H31  1  0.82093218  0.82159610  0.04768804  1
  N  N32  1  0.39211253  0.97353182  0.00438028  1
  N  N33  1  0.89216329  0.52646126  0.49574986  1
  Ag  Ag34  1  0.96284276  0.98249982  0.49716951  1
  Ag  Ag35  1  0.46281711  0.51751427  0.00285550  1
  Br  Br36  1  0.59310485  0.29340929  0.97221272  1
  Br  Br37  1  0.20924202  0.99757590  0.16016729  1
  Br  Br38  1  0.76074944  0.00521291  0.24781745  1
  Br  Br39  1  0.09314355  0.20660398  0.52779641  1
  Br  Br40  1  0.30433624  0.01785275  0.79287600  1
  Br  Br41  1  0.82182615  0.97439793  0.79022517  1
  Br  Br42  1  0.44284586  0.77498800  0.01483600  1
  Br  Br43  1  0.70938628  0.50233274  0.33973224  1
  Br  Br44  1  0.26079437  0.49480850  0.25212162  1
  Br  Br45  1  0.94279589  0.72503914  0.48521605  1
  Br  Br46  1  0.32170800  0.52564309  0.70974172  1
  Br  Br47  1  0.80430080  0.48219321  0.70715198  1
