# generated using pymatgen
data_H10RhC2Br6N5
_symmetry_space_group_name_H-M   'P 1'
_cell_length_a   8.57935637
_cell_length_b   9.56623120
_cell_length_c   8.15101131
_cell_angle_alpha   97.43362244
_cell_angle_beta   89.98641828
_cell_angle_gamma   90.03825047
_symmetry_Int_Tables_number   1
_chemical_formula_structural   H10RhC2Br6N5
_chemical_formula_sum   'H20 Rh2 C4 Br12 N10'
_cell_volume   663.34809015
_cell_formula_units_Z   2
loop_
 _symmetry_equiv_pos_site_id
 _symmetry_equiv_pos_as_xyz
  1  'x, y, z'
loop_
 _atom_site_type_symbol
 _atom_site_label
 _atom_site_symmetry_multiplicity
 _atom_site_fract_x
 _atom_site_fract_y
 _atom_site_fract_z
 _atom_site_occupancy
  C  C0  1  0.51366448  0.24776163  0.46601486  1
  C  C1  1  0.01339088  0.25196060  0.03331785  1
  C  C2  1  0.52880001  0.81685673  0.56342409  1
  C  C3  1  0.02902190  0.68328610  0.93667214  1
  N  N4  1  0.55351551  0.20967694  0.60918298  1
  N  N5  1  0.37086194  0.26196554  0.41415243  1
  N  N6  1  0.05248921  0.29057561  0.89017000  1
  N  N7  1  0.87083340  0.23783373  0.08606804  1
  N  N8  1  0.60773310  0.72952308  0.64315464  1
  N  N9  1  0.41461660  0.78272089  0.46013578  1
  N  N10  1  0.10954796  0.76982285  0.85718066  1
  N  N11  1  0.91488544  0.71846668  0.03968399  1
  H  H12  1  0.60757183  0.27093327  0.38336891  1
  H  H13  1  0.66862206  0.21096575  0.64101517  1
  H  H14  1  0.47504388  0.20116575  0.70194767  1
  H  H15  1  0.35706661  0.27941157  0.29374172  1
  H  H16  1  0.27472942  0.23858032  0.47964498  1
  H  H17  1  0.10772882  0.22822977  0.11507219  1
  H  H18  1  0.16735194  0.28904913  0.85731223  1
  H  H19  1  0.97345388  0.29946991  0.79810162  1
  H  H20  1  0.85762935  0.21990649  0.20639411  1
  H  H21  1  0.77439215  0.26155304  0.02134972  1
  H  H22  1  0.56510559  0.92681473  0.58549364  1
  H  H23  1  0.69698796  0.77096067  0.71701982  1
  H  H24  1  0.58289280  0.62463099  0.63720144  1
  H  H25  1  0.35848746  0.86218202  0.41114417  1
  H  H26  1  0.35000140  0.68953529  0.45346141  1
  H  H27  1  0.06372691  0.57294078  0.91463907  1
  H  H28  1  0.19832346  0.72730039  0.78333890  1
  H  H29  1  0.08660432  0.87504287  0.86337526  1
  H  H30  1  0.85770344  0.63949781  0.08866876  1
  H  H31  1  0.85114999  0.81196632  0.04598939  1
  N  N32  1  0.67417294  0.90666302  0.07882261  1
  N  N33  1  0.17438103  0.59356194  0.42148253  1
  Rh  Rh34  1  0.99392852  0.98046480  0.47053130  1
  Rh  Rh35  1  0.49362903  0.51940406  0.02980177  1
  Br  Br36  1  0.45629776  0.25274048  0.01533070  1
  Br  Br37  1  0.16780727  0.97618931  0.22473809  1
  Br  Br38  1  0.72815192  0.97708907  0.30734963  1
  Br  Br39  1  0.95620876  0.24703732  0.48488026  1
  Br  Br40  1  0.21892089  0.03081152  0.66154978  1
  Br  Br41  1  0.83622906  0.99398140  0.73642720  1
  Br  Br42  1  0.49803548  0.78566272  0.05411400  1
  Br  Br43  1  0.66742207  0.52432137  0.27558105  1
  Br  Br44  1  0.22774752  0.52274614  0.19284171  1
  Br  Br45  1  0.99819916  0.71430161  0.44636354  1
  Br  Br46  1  0.33607356  0.50489945  0.76368399  1
  Br  Br47  1  0.71888063  0.46960152  0.83916898  1
