# generated using pymatgen
data_NbH10C2Br6N5
_symmetry_space_group_name_H-M   'P 1'
_cell_length_a   8.22230976
_cell_length_b   10.13074379
_cell_length_c   8.20322976
_cell_angle_alpha   90.52917646
_cell_angle_beta   90.00071710
_cell_angle_gamma   89.99709600
_symmetry_Int_Tables_number   1
_chemical_formula_structural   NbH10C2Br6N5
_chemical_formula_sum   'Nb2 H20 C4 Br12 N10'
_cell_volume   683.28441966
_cell_formula_units_Z   2
loop_
 _symmetry_equiv_pos_site_id
 _symmetry_equiv_pos_as_xyz
  1  'x, y, z'
loop_
 _atom_site_type_symbol
 _atom_site_label
 _atom_site_symmetry_multiplicity
 _atom_site_fract_x
 _atom_site_fract_y
 _atom_site_fract_z
 _atom_site_occupancy
  C  C0  1  0.49702986  0.29267605  0.49629662  1
  C  C1  1  0.99707093  0.20732387  0.00368336  1
  C  C2  1  0.50260634  0.79183458  0.50331573  1
  C  C3  1  0.00257993  0.70816303  0.99668052  1
  N  N4  1  0.59465609  0.23629659  0.60083763  1
  N  N5  1  0.40506596  0.23247953  0.38862252  1
  N  N6  1  0.09470489  0.26369957  0.89915895  1
  N  N7  1  0.90511852  0.26751892  0.11138005  1
  N  N8  1  0.60629108  0.73193927  0.59828523  1
  N  N9  1  0.39331050  0.73507039  0.41041209  1
  N  N10  1  0.10628618  0.76805814  0.90172473  1
  N  N11  1  0.89327871  0.76492542  0.08957450  1
  H  H12  1  0.49087138  0.39985946  0.49971753  1
  H  H13  1  0.66218268  0.29620322  0.67655427  1
  H  H14  1  0.61073811  0.13660545  0.61005622  1
  H  H15  1  0.33312228  0.29000398  0.31561208  1
  H  H16  1  0.40041048  0.13251646  0.37149606  1
  H  H17  1  0.99088403  0.10013974  1.00022653  1
  H  H18  1  0.16221617  0.20378837  0.82342358  1
  H  H19  1  0.11081219  0.36339313  0.88996215  1
  H  H20  1  0.83316998  0.20999318  0.18437712  1
  H  H21  1  0.90048321  0.36748196  0.12853300  1
  H  H22  1  0.50828788  0.89904376  0.50118855  1
  H  H23  1  0.68596752  0.78767919  0.66553784  1
  H  H24  1  0.61329179  0.63205461  0.61083145  1
  H  H25  1  0.31879181  0.79265032  0.34085221  1
  H  H26  1  0.37692124  0.63547301  0.40151207  1
  H  H27  1  0.00825914  0.60094843  0.99879085  1
  H  H28  1  0.18596931  0.71231014  0.83447921  1
  H  H29  1  0.11328936  0.86794280  0.88919213  1
  H  H30  1  0.81874701  0.70734134  0.15911010  1
  H  H31  1  0.87688009  0.86452423  0.09848253  1
  N  N32  1  0.49838491  0.07830483  0.00588827  1
  N  N33  1  0.99844336  0.42172506  0.49424586  1
  Nb  Nb34  1  0.00163764  0.01254883  0.49933717  1
  Nb  Nb35  1  0.50164689  0.48746998  0.00066686  1
  Br  Br36  1  0.50200428  0.24922633  0.99915351  1
  Br  Br37  1  0.18719208  0.99003922  0.24105813  1
  Br  Br38  1  0.74320720  0.01342071  0.30830171  1
  Br  Br39  1  0.00199209  0.25078821  0.50086852  1
  Br  Br40  1  0.25905823  0.01383463  0.68898616  1
  Br  Br41  1  0.80956085  0.99344088  0.75410226  1
  Br  Br42  1  0.49925798  0.73811280  0.00270472  1
  Br  Br43  1  0.68722343  0.50995917  0.25895182  1
  Br  Br44  1  0.24320242  0.48660454  0.19171525  1
  Br  Br45  1  0.99927903  0.76191682  0.49731501  1
  Br  Br46  1  0.30957285  0.50658146  0.74589297  1
  Br  Br47  1  0.75906146  0.48615136  0.81100916  1
