# generated using pymatgen
data_AsH10C2Br6N5
_symmetry_space_group_name_H-M   'P 1'
_cell_length_a   8.42659623
_cell_length_b   10.19891435
_cell_length_c   8.14831012
_cell_angle_alpha   92.74418054
_cell_angle_beta   89.99907837
_cell_angle_gamma   89.98264936
_symmetry_Int_Tables_number   1
_chemical_formula_structural   AsH10C2Br6N5
_chemical_formula_sum   'As2 H20 C4 Br12 N10'
_cell_volume   699.48007465
_cell_formula_units_Z   2
loop_
 _symmetry_equiv_pos_site_id
 _symmetry_equiv_pos_as_xyz
  1  'x, y, z'
loop_
 _atom_site_type_symbol
 _atom_site_label
 _atom_site_symmetry_multiplicity
 _atom_site_fract_x
 _atom_site_fract_y
 _atom_site_fract_z
 _atom_site_occupancy
  C  C0  1  0.48333761  0.26527903  0.48227528  1
  C  C1  1  0.98354739  0.23475397  0.01756645  1
  C  C2  1  0.51660451  0.79807179  0.52095746  1
  C  C3  1  0.01644963  0.70191797  0.97915511  1
  N  N4  1  0.59939907  0.22534650  0.57490096  1
  N  N5  1  0.41391228  0.19767325  0.36225160  1
  N  N6  1  0.09961852  0.27472854  0.92501058  1
  N  N7  1  0.91410004  0.30228619  0.13765536  1
  N  N8  1  0.59500514  0.73729525  0.63488225  1
  N  N9  1  0.40022272  0.75308462  0.42908584  1
  N  N10  1  0.09489235  0.76269264  0.86526532  1
  N  N11  1  0.90004612  0.74692746  0.07099420  1
  H  H12  1  0.43826371  0.36406971  0.51026519  1
  H  H13  1  0.64914307  0.28967273  0.66051256  1
  H  H14  1  0.65129392  0.13554965  0.55671779  1
  H  H15  1  0.32898883  0.24618326  0.29946436  1
  H  H16  1  0.44514571  0.10433879  0.31451945  1
  H  H17  1  0.93849382  0.13599589  0.98943930  1
  H  H18  1  0.14936355  0.21044711  0.83931468  1
  H  H19  1  0.15147732  0.36449781  0.94331200  1
  H  H20  1  0.82916807  0.25377428  0.20038464  1
  H  H21  1  0.94529677  0.39559601  0.18546614  1
  H  H22  1  0.55472336  0.89809613  0.49931861  1
  H  H23  1  0.69196562  0.78357000  0.68551085  1
  H  H24  1  0.58093681  0.64013782  0.65566487  1
  H  H25  1  0.37132183  0.81818043  0.33190632  1
  H  H26  1  0.36087342  0.65825732  0.42820056  1
  H  H27  1  0.05458334  0.60187490  0.00075870  1
  H  H28  1  0.19188079  0.71638079  0.81465315  1
  H  H29  1  0.08081476  0.85986555  0.84450640  1
  H  H30  1  0.87117338  0.68181702  0.16815411  1
  H  H31  1  0.86068618  0.84175817  0.07194677  1
  N  N32  1  0.39262980  0.94054447  0.21150606  1
  N  N33  1  0.89267381  0.55940848  0.28852992  1
  As  As34  1  0.01120926  0.02131149  0.50421931  1
  As  As35  1  0.51131410  0.47869294  0.99580479  1
  Br  Br36  1  0.51443936  0.24350824  0.98472329  1
  Br  Br37  1  0.17124097  0.98756153  0.17915102  1
  Br  Br38  1  0.77099299  0.01767213  0.28453539  1
  Br  Br39  1  0.01429596  0.25649407  0.51527045  1
  Br  Br40  1  0.26011179  0.01780899  0.68977882  1
  Br  Br41  1  0.82199493  0.99253977  0.74387361  1
  Br  Br42  1  0.47583552  0.85067345  0.01810826  1
  Br  Br43  1  0.67134285  0.51233912  0.32093777  1
  Br  Br44  1  0.27103922  0.48243711  0.21540451  1
  Br  Br45  1  0.97584209  0.64931755  0.48189457  1
  Br  Br46  1  0.32212008  0.50752650  0.75613515  1
  Br  Br47  1  0.76020698  0.48210657  0.81021497  1
