# generated using pymatgen
data_GaH10C2Br6N5
_symmetry_space_group_name_H-M   'P 1'
_cell_length_a   8.33119611
_cell_length_b   11.05049847
_cell_length_c   7.80682897
_cell_angle_alpha   89.32725783
_cell_angle_beta   90.00121095
_cell_angle_gamma   89.99843624
_symmetry_Int_Tables_number   1
_chemical_formula_structural   GaH10C2Br6N5
_chemical_formula_sum   'Ga2 H20 C4 Br12 N10'
_cell_volume   718.67734305
_cell_formula_units_Z   2
loop_
 _symmetry_equiv_pos_site_id
 _symmetry_equiv_pos_as_xyz
  1  'x, y, z'
loop_
 _atom_site_type_symbol
 _atom_site_label
 _atom_site_symmetry_multiplicity
 _atom_site_fract_x
 _atom_site_fract_y
 _atom_site_fract_z
 _atom_site_occupancy
  C  C0  1  0.50348982  0.29065810  0.48386836  1
  C  C1  1  0.00351159  0.20933462  0.01612145  1
  C  C2  1  0.50160561  0.78961271  0.51054644  1
  C  C3  1  0.00158962  0.71038361  0.98945829  1
  N  N4  1  0.60536192  0.23910507  0.58966944  1
  N  N5  1  0.39823190  0.23474628  0.38849214  1
  N  N6  1  0.10539786  0.26088813  0.91035478  1
  N  N7  1  0.89826523  0.26524258  0.11150747  1
  N  N8  1  0.60741428  0.73744365  0.61113242  1
  N  N9  1  0.40399290  0.73460657  0.40534999  1
  N  N10  1  0.10736594  0.76255652  0.88886251  1
  N  N11  1  0.90396808  0.76538107  0.09465384  1
  H  H12  1  0.50734335  0.38912560  0.47390800  1
  H  H13  1  0.68083856  0.29372794  0.65859347  1
  H  H14  1  0.60263834  0.14907306  0.62030827  1
  H  H15  1  0.32572026  0.28568074  0.31068700  1
  H  H16  1  0.38973601  0.14290200  0.37840473  1
  H  H17  1  0.00734430  0.11086193  0.02603749  1
  H  H18  1  0.18086022  0.20627123  0.84140567  1
  H  H19  1  0.10268915  0.35093153  0.87974683  1
  H  H20  1  0.82573803  0.21430163  0.18929226  1
  H  H21  1  0.88978292  0.35708275  0.12163450  1
  H  H22  1  0.49367504  0.88798162  0.51490833  1
  H  H23  1  0.67147528  0.79045514  0.69289511  1
  H  H24  1  0.62679605  0.64617079  0.61756407  1
  H  H25  1  0.33545190  0.78658211  0.32394253  1
  H  H26  1  0.40012604  0.64317105  0.39108616  1
  H  H27  1  0.99368906  0.61201100  0.98512030  1
  H  H28  1  0.17144516  0.70954154  0.80709895  1
  H  H29  1  0.12672934  0.85382840  0.88241060  1
  H  H30  1  0.83544344  0.71340844  0.17605981  1
  H  H31  1  0.90006491  0.85682303  0.10889182  1
  N  N32  1  0.43181727  0.99584416  0.99432320  1
  N  N33  1  0.93182116  0.50420355  0.50571817  1
  Ga  Ga34  1  0.89814373  0.00099231  0.51433137  1
  Ga  Ga35  1  0.39815247  0.49904583  0.98567237  1
  Br  Br36  1  0.53177189  0.31329650  0.99635314  1
  Br  Br37  1  0.26980865  0.97620160  0.17358802  1
  Br  Br38  1  0.70741886  0.01388452  0.28325799  1
  Br  Br39  1  0.03171983  0.18675344  0.50368011  1
  Br  Br40  1  0.31508871  0.02277398  0.78026660  1
  Br  Br41  1  0.76517024  0.98945841  0.78710871  1
  Br  Br42  1  0.52688137  0.68554853  0.01394947  1
  Br  Br43  1  0.76981826  0.52378185  0.32642001  1
  Br  Br44  1  0.20743406  0.48612893  0.21674522  1
  Br  Br45  1  0.02693368  0.81451005  0.48603603  1
  Br  Br46  1  0.26516963  0.51054078  0.71289405  1
  Br  Br47  1  0.81508744  0.47720810  0.71974729  1
