# generated using pymatgen
data_CuH10C2Br6N5
_symmetry_space_group_name_H-M   'P 1'
_cell_length_a   8.54852408
_cell_length_b   10.08127836
_cell_length_c   8.21389224
_cell_angle_alpha   91.05033493
_cell_angle_beta   89.96389402
_cell_angle_gamma   89.96877010
_symmetry_Int_Tables_number   1
_chemical_formula_structural   CuH10C2Br6N5
_chemical_formula_sum   'Cu2 H20 C4 Br12 N10'
_cell_volume   707.75446148
_cell_formula_units_Z   2
loop_
 _symmetry_equiv_pos_site_id
 _symmetry_equiv_pos_as_xyz
  1  'x, y, z'
loop_
 _atom_site_type_symbol
 _atom_site_label
 _atom_site_symmetry_multiplicity
 _atom_site_fract_x
 _atom_site_fract_y
 _atom_site_fract_z
 _atom_site_occupancy
  C  C0  1  0.50332211  0.29800118  0.50382716  1
  C  C1  1  0.00481129  0.20200985  0.99595574  1
  C  C2  1  0.50361084  0.78911306  0.50250763  1
  C  C3  1  0.00325619  0.71134709  0.99671759  1
  N  N4  1  0.52889176  0.24690185  0.64655477  1
  N  N5  1  0.41621882  0.24501162  0.38792098  1
  N  N6  1  0.02853034  0.25319926  0.85292515  1
  N  N7  1  0.91809043  0.25436158  0.11277428  1
  N  N8  1  0.62491681  0.74011094  0.57815952  1
  N  N9  1  0.43580594  0.73363841  0.37528473  1
  N  N10  1  0.12467733  0.76092089  0.92183154  1
  N  N11  1  0.93552576  0.76564960  0.12489064  1
  H  H12  1  0.56177154  0.39143093  0.47711878  1
  H  H13  1  0.60249443  0.29774798  0.72399335  1
  H  H14  1  0.47378383  0.16193830  0.68395998  1
  H  H15  1  0.40296195  0.29360725  0.28100303  1
  H  H16  1  0.36038968  0.15551986  0.39661047  1
  H  H17  1  0.06455222  0.10900488  0.02209591  1
  H  H18  1  0.10205174  0.20280335  0.77482285  1
  H  H19  1  0.97226076  0.33780340  0.81594252  1
  H  H20  1  0.90616996  0.20559822  0.21976105  1
  H  H21  1  0.86099032  0.34338758  0.10467365  1
  H  H22  1  0.45278456  0.88114755  0.55142145  1
  H  H23  1  0.66691903  0.78859545  0.67896971  1
  H  H24  1  0.67881303  0.65398385  0.54202758  1
  H  H25  1  0.35174238  0.78673101  0.31568625  1
  H  H26  1  0.48351772  0.65198311  0.31829610  1
  H  H27  1  0.95229992  0.61988925  0.94644651  1
  H  H28  1  0.16664488  0.71354388  0.82017039  1
  H  H29  1  0.17882572  0.84641660  0.95964126  1
  H  H30  1  0.85143082  0.71213372  0.18389624  1
  H  H31  1  0.98320738  0.84679431  0.18282755  1
  N  N32  1  0.56971843  0.95789863  0.01313981  1
  N  N33  1  0.06955004  0.54217310  0.48734176  1
  Cu  Cu34  1  0.10747420  0.98422691  0.49429507  1
  Cu  Cu35  1  0.60740118  0.51544573  0.00598197  1
  Br  Br36  1  0.35905941  0.41689523  0.98660958  1
  Br  Br37  1  0.22700335  0.98639304  0.22807586  1
  Br  Br38  1  0.67774985  0.99420922  0.22056164  1
  Br  Br39  1  0.85927214  0.08325977  0.51343973  1
  Br  Br40  1  0.27011108  0.01825491  0.72865422  1
  Br  Br41  1  0.71600292  0.99979051  0.83568846  1
  Br  Br42  1  0.52302585  0.75397182  0.98708193  1
  Br  Br43  1  0.72690930  0.51278949  0.27192166  1
  Br  Br44  1  0.17765833  0.50592038  0.27973913  1
  Br  Br45  1  0.02252450  0.74609473  0.51319321  1
  Br  Br46  1  0.21570791  0.50047624  0.66479046  1
  Br  Br47  1  0.76958137  0.48193745  0.77087591  1
