# generated using pymatgen
data_PH10C2Br6N5
_symmetry_space_group_name_H-M   'P 1'
_cell_length_a   8.23176249
_cell_length_b   10.26360508
_cell_length_c   8.19093051
_cell_angle_alpha   92.63599218
_cell_angle_beta   89.94263655
_cell_angle_gamma   89.97274563
_symmetry_Int_Tables_number   1
_chemical_formula_structural   PH10C2Br6N5
_chemical_formula_sum   'P2 H20 C4 Br12 N10'
_cell_volume   691.29903173
_cell_formula_units_Z   2
loop_
 _symmetry_equiv_pos_site_id
 _symmetry_equiv_pos_as_xyz
  1  'x, y, z'
loop_
 _atom_site_type_symbol
 _atom_site_label
 _atom_site_symmetry_multiplicity
 _atom_site_fract_x
 _atom_site_fract_y
 _atom_site_fract_z
 _atom_site_occupancy
  C  C0  1  0.51672785  0.26801478  0.47379267  1
  C  C1  1  0.01780777  0.23230670  0.02668567  1
  C  C2  1  0.48718766  0.79188599  0.49188923  1
  C  C3  1  0.98789800  0.70770003  0.00769984  1
  N  N4  1  0.56777691  0.18255344  0.57732919  1
  N  N5  1  0.39679733  0.24910611  0.37140711  1
  N  N6  1  0.06589307  0.31807308  0.92217288  1
  N  N7  1  0.89845119  0.25001799  0.13034631  1
  N  N8  1  0.61675470  0.74169981  0.55849858  1
  N  N9  1  0.41250206  0.74263664  0.36258308  1
  N  N10  1  0.11731128  0.75807090  0.94087919  1
  N  N11  1  0.91209104  0.75747328  0.13623324  1
  H  H12  1  0.58244937  0.36037357  0.46989257  1
  H  H13  1  0.66022950  0.20630487  0.65540287  1
  H  H14  1  0.50360506  0.10030664  0.59859495  1
  H  H15  1  0.36307308  0.32456359  0.30140736  1
  H  H16  1  0.33462534  0.16202885  0.35311760  1
  H  H17  1  0.08547795  0.14076894  0.03036386  1
  H  H18  1  0.15786838  0.29520419  0.84293196  1
  H  H19  1  0.99926042  0.39909673  0.90089464  1
  H  H20  1  0.86744060  0.17454249  0.20140492  1
  H  H21  1  0.83471824  0.33639772  0.14882224  1
  H  H22  1  0.43609583  0.88061373  0.54963234  1
  H  H23  1  0.66299367  0.78338774  0.66377459  1
  H  H24  1  0.67230031  0.66042515  0.50634229  1
  H  H25  1  0.32202588  0.79738508  0.31229490  1
  H  H26  1  0.45544681  0.66024890  0.30115342  1
  H  H27  1  0.93787449  0.61834611  0.95077987  1
  H  H28  1  0.16479217  0.71555314  0.83655042  1
  H  H29  1  0.17212023  0.83975244  0.99252171  1
  H  H30  1  0.82178928  0.70263940  0.18672293  1
  H  H31  1  0.95415340  0.84031525  0.19710838  1
  N  N32  1  0.58573772  0.97879209  0.01378124  1
  N  N33  1  0.08586492  0.52184580  0.48637736  1
  P  P34  1  0.00527808  0.01379244  0.58596763  1
  P  P35  1  0.50439447  0.48624594  0.91480398  1
  Br  Br36  1  0.48512743  0.27161093  0.97119086  1
  Br  Br37  1  0.18895431  0.98674200  0.24146471  1
  Br  Br38  1  0.66235882  0.00067995  0.23756841  1
  Br  Br39  1  0.98578360  0.22852496  0.52928085  1
  Br  Br40  1  0.24003439  0.02330989  0.73883042  1
  Br  Br41  1  0.81922433  0.00139790  0.80377186  1
  Br  Br42  1  0.52064073  0.79795580  0.97263821  1
  Br  Br43  1  0.68978306  0.51291928  0.25797266  1
  Br  Br44  1  0.16317804  0.49942564  0.26260315  1
  Br  Br45  1  0.02044658  0.70269944  0.52662667  1
  Br  Br46  1  0.31859931  0.49904966  0.69687810  1
  Br  Br47  1  0.73907472  0.47727798  0.76111784  1
