# generated using pymatgen
data_AlH10C2Br6N5
_symmetry_space_group_name_H-M   'P 1'
_cell_length_a   8.37825065
_cell_length_b   10.99113689
_cell_length_c   7.73770574
_cell_angle_alpha   89.56182167
_cell_angle_beta   89.99934872
_cell_angle_gamma   90.00428648
_symmetry_Int_Tables_number   1
_chemical_formula_structural   AlH10C2Br6N5
_chemical_formula_sum   'Al2 H20 C4 Br12 N10'
_cell_volume   712.51739886
_cell_formula_units_Z   2
loop_
 _symmetry_equiv_pos_site_id
 _symmetry_equiv_pos_as_xyz
  1  'x, y, z'
loop_
 _atom_site_type_symbol
 _atom_site_label
 _atom_site_symmetry_multiplicity
 _atom_site_fract_x
 _atom_site_fract_y
 _atom_site_fract_z
 _atom_site_occupancy
  C  C0  1  0.50259889  0.29064305  0.48069006  1
  C  C1  1  0.00271670  0.20928670  0.01925028  1
  C  C2  1  0.50168528  0.78924429  0.51380713  1
  C  C3  1  0.00148789  0.71068459  0.98620773  1
  N  N4  1  0.60202492  0.23987013  0.59023616  1
  N  N5  1  0.39581071  0.23369065  0.38784907  1
  N  N6  1  0.10222601  0.26004455  0.90980757  1
  N  N7  1  0.89592504  0.26626099  0.11208188  1
  N  N8  1  0.61009195  0.73783191  0.61211348  1
  N  N9  1  0.40518208  0.73299494  0.40774981  1
  N  N10  1  0.10979056  0.76210739  0.88778562  1
  N  N11  1  0.90505384  0.76692394  0.09235310  1
  H  H12  1  0.51055468  0.38911360  0.46460373  1
  H  H13  1  0.67854273  0.29526646  0.65770487  1
  H  H14  1  0.59540007  0.15043762  0.62610664  1
  H  H15  1  0.32576780  0.28392109  0.30635197  1
  H  H16  1  0.38417539  0.14127413  0.38241273  1
  H  H17  1  0.01057453  0.11080295  0.03526791  1
  H  H18  1  0.17866155  0.20464197  0.84227148  1
  H  H19  1  0.09566688  0.34949464  0.87397649  1
  H  H20  1  0.82581656  0.21602362  0.19353751  1
  H  H21  1  0.88438922  0.35867410  0.11761261  1
  H  H22  1  0.48982953  0.88777452  0.52170919  1
  H  H23  1  0.67292815  0.79145227  0.69519627  1
  H  H24  1  0.63244044  0.64640496  0.61573769  1
  H  H25  1  0.33513945  0.78461626  0.32693224  1
  H  H26  1  0.40620344  0.64137092  0.38945274  1
  H  H27  1  0.98965460  0.61215126  0.97833441  1
  H  H28  1  0.17260475  0.70849083  0.80468215  1
  H  H29  1  0.13216158  0.85352584  0.88417455  1
  H  H30  1  0.83503121  0.71529238  0.17318545  1
  H  H31  1  0.90603454  0.85855777  0.11061500  1
  N  N32  1  0.43186668  0.99439586  0.99384685  1
  N  N33  1  0.93184765  0.50612397  0.50641826  1
  Al  Al34  1  0.89576067  0.00276065  0.51579281  1
  Al  Al35  1  0.39574324  0.49746036  0.98419407  1
  Br  Br36  1  0.53125702  0.31659524  0.99770524  1
  Br  Br37  1  0.27060838  0.97427541  0.17400644  1
  Br  Br38  1  0.70883740  0.01271495  0.28900156  1
  Br  Br39  1  0.03102165  0.18373726  0.50239005  1
  Br  Br40  1  0.31612349  0.02359706  0.77842543  1
  Br  Br41  1  0.76909066  0.99221825  0.78656429  1
  Br  Br42  1  0.52841076  0.67842823  0.01472075  1
  Br  Br43  1  0.77065587  0.52559160  0.32603109  1
  Br  Br44  1  0.20882749  0.48734076  0.21099371  1
  Br  Br45  1  0.02868533  0.82191566  0.48516571  1
  Br  Br46  1  0.26905661  0.50777293  0.71342550  1
  Br  Br47  1  0.81605544  0.47626446  0.72162547  1
