# generated using pymatgen
data_MgH10PbC2(Br3N2)2
_symmetry_space_group_name_H-M   'P 1'
_cell_length_a   8.09403200
_cell_length_b   11.10452661
_cell_length_c   8.08346738
_cell_angle_alpha   89.84109946
_cell_angle_beta   89.99980005
_cell_angle_gamma   89.99851429
_symmetry_Int_Tables_number   1
_chemical_formula_structural   MgH10PbC2(Br3N2)2
_chemical_formula_sum   'Mg2 H20 Pb2 C4 Br12 N8'
_cell_volume   726.54243573
_cell_formula_units_Z   2
loop_
 _symmetry_equiv_pos_site_id
 _symmetry_equiv_pos_as_xyz
  1  'x, y, z'
loop_
 _atom_site_type_symbol
 _atom_site_label
 _atom_site_symmetry_multiplicity
 _atom_site_fract_x
 _atom_site_fract_y
 _atom_site_fract_z
 _atom_site_occupancy
  C  C0  1  0.49442377  0.29081490  0.49603268  1
  C  C1  1  0.99446933  0.20918238  0.00396564  1
  C  C2  1  0.50529447  0.79082830  0.50348305  1
  C  C3  1  0.00525477  0.70917694  0.99649734  1
  N  N4  1  0.59912105  0.23742659  0.59560113  1
  N  N5  1  0.39400127  0.23661329  0.39343846  1
  N  N6  1  0.09917017  0.26256509  0.90444690  1
  N  N7  1  0.89401968  0.26338267  0.10657804  1
  N  N8  1  0.60526318  0.73663903  0.60696013  1
  N  N9  1  0.40192485  0.73741518  0.40298815  1
  N  N10  1  0.10521309  0.76337274  0.89305260  1
  N  N11  1  0.90184371  0.76258381  0.09699159  1
  H  H12  1  0.49022167  0.38882681  0.49899279  1
  H  H13  1  0.67396210  0.28899794  0.66837003  1
  H  H14  1  0.60839462  0.14619770  0.60761575  1
  H  H15  1  0.31537532  0.28799747  0.32388737  1
  H  H16  1  0.39119358  0.14561629  0.37602531  1
  H  H17  1  0.99024322  0.11117041  0.00098854  1
  H  H18  1  0.17403166  0.21099517  0.83166868  1
  H  H19  1  0.10847992  0.35380266  0.89245525  1
  H  H20  1  0.81538801  0.21200022  0.17609095  1
  H  H21  1  0.89123311  0.35437325  0.12400325  1
  H  H22  1  0.50869162  0.88887132  0.50063278  1
  H  H23  1  0.67819520  0.78812709  0.68189100  1
  H  H24  1  0.61763832  0.64534818  0.61548167  1
  H  H25  1  0.33199988  0.78891910  0.32494429  1
  H  H26  1  0.38447553  0.64645027  0.39989486  1
  H  H27  1  0.00866514  0.61113568  0.99934684  1
  H  H28  1  0.17818152  0.71189296  0.81811752  1
  H  H29  1  0.11758397  0.85467148  0.88453354  1
  H  H30  1  0.83192996  0.71107299  0.17501005  1
  H  H31  1  0.88437845  0.85353973  0.10007852  1
  Mg  Mg32  1  0.49966273  0.00000009  0.99782557  1
  Mg  Mg33  1  0.99966923  0.50000983  0.50218004  1
  Pb  Pb34  1  0.00114886  0.00003158  0.49736581  1
  Pb  Pb35  1  0.50115401  0.49997917  0.00263536  1
  Br  Br36  1  0.49876581  0.23412022  0.99544376  1
  Br  Br37  1  0.22969435  0.98653400  0.20254685  1
  Br  Br38  1  0.70451823  0.01314616  0.26822474  1
  Br  Br39  1  0.99874215  0.26588853  0.50458974  1
  Br  Br40  1  0.29477547  0.01305109  0.72792664  1
  Br  Br41  1  0.76968498  0.98736631  0.79257985  1
  Br  Br42  1  0.50162414  0.76589640  0.00322106  1
  Br  Br43  1  0.72968541  0.51347112  0.29746817  1
  Br  Br44  1  0.20451255  0.48685383  0.23177345  1
  Br  Br45  1  0.00166629  0.73411232  0.49674396  1
  Br  Br46  1  0.26968304  0.51264084  0.70743529  1
  Br  Br47  1  0.79476993  0.48695384  0.77207976  1
