# generated using pymatgen
data_SiH12PtC2(I3N)2
_symmetry_space_group_name_H-M   'P 1'
_cell_length_a   8.84506659
_cell_length_b   10.88249562
_cell_length_c   8.77296161
_cell_angle_alpha   91.15606517
_cell_angle_beta   89.91663708
_cell_angle_gamma   90.13290734
_symmetry_Int_Tables_number   1
_chemical_formula_structural   SiH12PtC2(I3N)2
_chemical_formula_sum   'Si2 H24 Pt2 C4 I12 N4'
_cell_volume   844.27868970
_cell_formula_units_Z   2
loop_
 _symmetry_equiv_pos_site_id
 _symmetry_equiv_pos_as_xyz
  1  'x, y, z'
loop_
 _atom_site_type_symbol
 _atom_site_label
 _atom_site_symmetry_multiplicity
 _atom_site_fract_x
 _atom_site_fract_y
 _atom_site_fract_z
 _atom_site_occupancy
  C  C0  1  0.44512297  0.30858763  0.36557250  1
  C  C1  1  0.94801318  0.19136622  0.12166804  1
  C  C2  1  0.56289734  0.68086389  0.62081549  1
  C  C3  1  0.05137339  0.81947545  0.87329589  1
  N  N4  1  0.55000285  0.26914294  0.48728396  1
  N  N5  1  0.06240790  0.22672219  0.00629720  1
  N  N6  1  0.44577604  0.74629864  0.53339425  1
  N  N7  1  0.94464716  0.76641021  0.98464964  1
  H  H8  1  0.49281909  0.28288903  0.25407809  1
  H  H9  1  0.33559490  0.26332795  0.38161306  1
  H  H10  1  0.43070321  0.40840181  0.37285244  1
  H  H11  1  0.57881662  0.17638640  0.47560056  1
  H  H12  1  0.65142950  0.31754019  0.48311604  1
  H  H13  1  0.50525130  0.28283599  0.59729716  1
  H  H14  1  0.99744127  0.20008435  0.23589828  1
  H  H15  1  0.91248865  0.09610250  0.10030733  1
  H  H16  1  0.85020870  0.25230769  0.11180282  1
  H  H17  1  0.15723280  0.17064469  0.01109462  1
  H  H18  1  0.10112270  0.31688425  0.02346042  1
  H  H19  1  0.01937951  0.21957318  0.89474268  1
  H  H20  1  0.51437376  0.65099075  0.72925910  1
  H  H21  1  0.59962866  0.59993294  0.55424529  1
  H  H22  1  0.65881778  0.74285423  0.64120901  1
  H  H23  1  0.41076875  0.82926218  0.58517009  1
  H  H24  1  0.34957165  0.69137752  0.52204793  1
  H  H25  1  0.48363903  0.76721750  0.42490337  1
  H  H26  1  0.99027024  0.83881303  0.76768118  1
  H  H27  1  0.09736716  0.90574490  0.92044400  1
  H  H28  1  0.14324946  0.75401886  0.85151091  1
  H  H29  1  0.84841517  0.82126970  0.99329265  1
  H  H30  1  0.90749127  0.67794003  0.95165273  1
  H  H31  1  0.99182225  0.76031430  0.09276018  1
  Si  Si32  1  0.43766822  0.85658025  0.94904115  1
  Si  Si33  1  0.94482123  0.62598807  0.56100816  1
  Pt  Pt34  1  0.99916597  0.99739012  0.50581158  1
  Pt  Pt35  1  0.50820540  0.50262747  0.99914189  1
  I  I36  1  0.43635012  0.29198132  0.87262452  1
  I  I37  1  0.33322928  0.00941059  0.15667803  1
  I  I38  1  0.72899404  0.97896056  0.37968660  1
  I  I39  1  0.91769544  0.20481925  0.63458402  1
  I  I40  1  0.27028678  0.02838648  0.62939746  1
  I  I41  1  0.67363584  0.97749778  0.85980875  1
  I  I42  1  0.58529655  0.70699091  0.14396611  1
  I  I43  1  0.83914725  0.48171585  0.34540337  1
  I  I44  1  0.23138581  0.52307337  0.10995053  1
  I  I45  1  0.08325239  0.79024789  0.37059171  1
  I  I46  1  0.18955542  0.51043100  0.63216212  1
  I  I47  1  0.78318973  0.47839621  0.88142369  1
