# generated using pymatgen
data_MgHgH10C2(Br3N2)2
_symmetry_space_group_name_H-M   'P 1'
_cell_length_a   8.10863516
_cell_length_b   10.94015661
_cell_length_c   8.09753325
_cell_angle_alpha   89.98959941
_cell_angle_beta   90.00049945
_cell_angle_gamma   89.99728187
_symmetry_Int_Tables_number   1
_chemical_formula_structural   MgHgH10C2(Br3N2)2
_chemical_formula_sum   'Mg2 Hg2 H20 C4 Br12 N8'
_cell_volume   718.33004496
_cell_formula_units_Z   2
loop_
 _symmetry_equiv_pos_site_id
 _symmetry_equiv_pos_as_xyz
  1  'x, y, z'
loop_
 _atom_site_type_symbol
 _atom_site_label
 _atom_site_symmetry_multiplicity
 _atom_site_fract_x
 _atom_site_fract_y
 _atom_site_fract_z
 _atom_site_occupancy
  C  C0  1  0.49494414  0.29112025  0.49590908  1
  C  C1  1  0.99499218  0.20887182  0.00409961  1
  C  C2  1  0.50507705  0.79109559  0.50387619  1
  C  C3  1  0.00502143  0.70891335  0.99611109  1
  N  N4  1  0.60021681  0.23732641  0.59468352  1
  N  N5  1  0.39312429  0.23600082  0.39481801  1
  N  N6  1  0.10028753  0.26267766  0.90535002  1
  N  N7  1  0.89316173  0.26399550  0.10520267  1
  N  N8  1  0.60373186  0.73587592  0.60795107  1
  N  N9  1  0.40270315  0.73736334  0.40198288  1
  N  N10  1  0.10367925  0.76413831  0.89204490  1
  N  N11  1  0.90262775  0.76262497  0.09798947  1
  H  H12  1  0.49139445  0.39072125  0.49818051  1
  H  H13  1  0.67450642  0.29061244  0.66697426  1
  H  H14  1  0.61040667  0.14472016  0.60635606  1
  H  H15  1  0.31571091  0.28876459  0.32503493  1
  H  H16  1  0.38849688  0.14344656  0.37895798  1
  H  H17  1  0.99142515  0.10927899  0.00180095  1
  H  H18  1  0.17456653  0.20938348  0.83306445  1
  H  H19  1  0.11048623  0.35527151  0.89371525  1
  H  H20  1  0.81573825  0.21123455  0.17495377  1
  H  H21  1  0.88854591  0.35654925  0.12107831  1
  H  H22  1  0.50874628  0.89068088  0.50176054  1
  H  H23  1  0.67661162  0.78867291  0.68242519  1
  H  H24  1  0.61492766  0.64314000  0.61711560  1
  H  H25  1  0.33291734  0.79065606  0.32528802  1
  H  H26  1  0.38604128  0.64497487  0.39672447  1
  H  H27  1  0.00871512  0.60932243  0.99821981  1
  H  H28  1  0.17657936  0.71134652  0.81758538  1
  H  H29  1  0.11485498  0.85687308  0.88289724  1
  H  H30  1  0.83284739  0.70933771  0.17467577  1
  H  H31  1  0.88594022  0.85502554  0.10325287  1
  Mg  Mg32  1  0.50019835  0.99993462  0.99798705  1
  Mg  Mg33  1  0.00019768  0.50007638  0.50201442  1
  Hg  Hg34  1  0.00261633  0.00002289  0.49598619  1
  Hg  Hg35  1  0.50263926  0.49998509  0.00400267  1
  Br  Br36  1  0.49778990  0.27104041  0.99498111  1
  Br  Br37  1  0.24234497  0.98365577  0.18980406  1
  Br  Br38  1  0.69114769  0.01533448  0.25608061  1
  Br  Br39  1  0.99774833  0.22896533  0.50507993  1
  Br  Br40  1  0.30839717  0.01653414  0.74094534  1
  Br  Br41  1  0.75720321  0.98464739  0.80651780  1
  Br  Br42  1  0.50079156  0.72907875  0.00440873  1
  Br  Br43  1  0.74232873  0.51634499  0.31020201  1
  Br  Br44  1  0.19114360  0.48467812  0.24392246  1
  Br  Br45  1  0.00085897  0.77092868  0.49554380  1
  Br  Br46  1  0.25719447  0.51536023  0.69349097  1
  Br  Br47  1  0.80839329  0.48345897  0.75905779  1
