# generated using pymatgen
data_MgH10PtC2(Br3N2)2
_symmetry_space_group_name_H-M   'P 1'
_cell_length_a   7.64403040
_cell_length_b   11.08676663
_cell_length_c   8.46523918
_cell_angle_alpha   89.89943945
_cell_angle_beta   90.00302551
_cell_angle_gamma   89.99774138
_symmetry_Int_Tables_number   1
_chemical_formula_structural   MgH10PtC2(Br3N2)2
_chemical_formula_sum   'Mg2 H20 Pt2 C4 Br12 N8'
_cell_volume   717.40743795
_cell_formula_units_Z   2
loop_
 _symmetry_equiv_pos_site_id
 _symmetry_equiv_pos_as_xyz
  1  'x, y, z'
loop_
 _atom_site_type_symbol
 _atom_site_label
 _atom_site_symmetry_multiplicity
 _atom_site_fract_x
 _atom_site_fract_y
 _atom_site_fract_z
 _atom_site_occupancy
  C  C0  1  0.48610086  0.29023235  0.48353172  1
  C  C1  1  0.98634783  0.20977837  0.01638967  1
  C  C2  1  0.51125801  0.78755138  0.52241942  1
  C  C3  1  0.01100848  0.71242603  0.97761906  1
  N  N4  1  0.56111868  0.24553282  0.60941170  1
  N  N5  1  0.39234917  0.22876117  0.38117963  1
  N  N6  1  0.06154883  0.25460621  0.89070244  1
  N  N7  1  0.89275818  0.27119178  0.11892704  1
  N  N8  1  0.59686265  0.72844489  0.63187815  1
  N  N9  1  0.43638710  0.74013659  0.39776003  1
  N  N10  1  0.09632257  0.77153027  0.86794576  1
  N  N11  1  0.93606918  0.75989987  0.10216792  1
  H  H12  1  0.50470425  0.38631001  0.46070698  1
  H  H13  1  0.63055301  0.30205292  0.68192999  1
  H  H14  1  0.55759684  0.15604447  0.63830014  1
  H  H15  1  0.34485071  0.27146527  0.28331610  1
  H  H16  1  0.36178200  0.13964666  0.39538688  1
  H  H17  1  0.00463485  0.11363028  0.03889078  1
  H  H18  1  0.13088069  0.19811506  0.81806885  1
  H  H19  1  0.05833417  0.34414872  0.86207430  1
  H  H20  1  0.84494694  0.22833401  0.21653844  1
  H  H21  1  0.86239160  0.36036022  0.10496943  1
  H  H22  1  0.50008249  0.88489045  0.53720951  1
  H  H23  1  0.64986202  0.77562284  0.72370996  1
  H  H24  1  0.61467536  0.63720134  0.63090039  1
  H  H25  1  0.37128043  0.79470549  0.31984171  1
  H  H26  1  0.44187252  0.65053577  0.37226003  1
  H  H27  1  0.00019353  0.61505953  0.96307571  1
  H  H28  1  0.14944216  0.72430826  0.77622641  1
  H  H29  1  0.11380369  0.86279085  0.86869767  1
  H  H30  1  0.87120169  0.70533714  0.18025937  1
  H  H31  1  0.94119633  0.84954870  0.12743050  1
  Mg  Mg32  1  0.56624680  0.04067412  0.05964495  1
  Mg  Mg33  1  0.06637334  0.45913863  0.44042466  1
  Pt  Pt34  1  0.00300623  0.02506550  0.48663898  1
  Pt  Pt35  1  0.50306556  0.47495982  0.01342156  1
  Br  Br36  1  0.46702729  0.25331611  0.98655370  1
  Br  Br37  1  0.27994229  0.97074149  0.15279208  1
  Br  Br38  1  0.72927366  0.01731485  0.32468619  1
  Br  Br39  1  0.96669721  0.24666678  0.51376038  1
  Br  Br40  1  0.24667949  0.02675698  0.67271555  1
  Br  Br41  1  0.73589355  0.98249546  0.83040142  1
  Br  Br42  1  0.51045272  0.69364430  0.01795935  1
  Br  Br43  1  0.78012155  0.52920971  0.34713409  1
  Br  Br44  1  0.22936817  0.48275828  0.17540244  1
  Br  Br45  1  0.01072220  0.80638838  0.48181091  1
  Br  Br46  1  0.23596379  0.51752884  0.66961890  1
  Br  Br47  1  0.74676868  0.47320399  0.82741390  1
