# generated using pymatgen
data_HfMgH10C2(Br3N2)2
_symmetry_space_group_name_H-M   'P 1'
_cell_length_a   7.06633521
_cell_length_b   11.41264057
_cell_length_c   8.93344683
_cell_angle_alpha   95.61341256
_cell_angle_beta   87.52269601
_cell_angle_gamma   89.92602179
_symmetry_Int_Tables_number   1
_chemical_formula_structural   HfMgH10C2(Br3N2)2
_chemical_formula_sum   'Hf2 Mg2 H20 C4 Br12 N8'
_cell_volume   716.30669908
_cell_formula_units_Z   2
loop_
 _symmetry_equiv_pos_site_id
 _symmetry_equiv_pos_as_xyz
  1  'x, y, z'
loop_
 _atom_site_type_symbol
 _atom_site_label
 _atom_site_symmetry_multiplicity
 _atom_site_fract_x
 _atom_site_fract_y
 _atom_site_fract_z
 _atom_site_occupancy
  C  C0  1  0.45171421  0.31300299  0.48745217  1
  C  C1  1  1.00173632  0.19549362  0.01943661  1
  C  C2  1  0.49555207  0.78557460  0.51940108  1
  C  C3  1  0.03905105  0.70589250  0.97974764  1
  N  N4  1  0.45063561  0.29357529  0.63206975  1
  N  N5  1  0.46238192  0.22983734  0.37530999  1
  N  N6  1  0.04826618  0.23281956  0.88893578  1
  N  N7  1  0.99388263  0.26020983  0.15052140  1
  N  N8  1  0.52060578  0.71878080  0.62868217  1
  N  N9  1  0.40820891  0.75440554  0.39553825  1
  N  N10  1  0.05678343  0.77038761  0.86628986  1
  N  N11  1  0.97182651  0.74227334  0.11510002  1
  H  H12  1  0.44091284  0.40276970  0.45527230  1
  H  H13  1  0.48435180  0.37145465  0.69339990  1
  H  H14  1  0.66839037  0.06701868  0.52844779  1
  H  H15  1  0.45821161  0.24967099  0.26639046  1
  H  H16  1  0.48108190  0.14285949  0.38996178  1
  H  H17  1  0.96262112  0.10322768  0.02622742  1
  H  H18  1  0.04057221  0.16171747  0.80968551  1
  H  H19  1  0.31759532  0.45716225  0.89908489  1
  H  H20  1  0.95927393  0.22270900  0.24656496  1
  H  H21  1  0.02924851  0.34718743  0.16082102  1
  H  H22  1  0.55175991  0.87451953  0.53181931  1
  H  H23  1  0.59295671  0.75112266  0.71967468  1
  H  H24  1  0.45443494  0.63876629  0.63158958  1
  H  H25  1  0.38421355  0.81664115  0.32357705  1
  H  H26  1  0.34777051  0.67340910  0.37320726  1
  H  H27  1  0.08550941  0.61435332  0.95896763  1
  H  H28  1  0.10347407  0.72989179  0.76398419  1
  H  H29  1  0.01770873  0.85693261  0.87327040  1
  H  H30  1  0.96129179  0.68424492  0.19477318  1
  H  H31  1  0.91957741  0.82588642  0.14491035  1
  Mg  Mg32  1  0.53751195  0.13978860  0.71182454  1
  Mg  Mg33  1  0.14897465  0.36697205  0.77348076  1
  Hf  Hf34  1  0.92019759  0.00826571  0.48796681  1
  Hf  Hf35  1  0.51662787  0.49375948  0.03647902  1
  Br  Br36  1  0.52075288  0.25321666  0.99855636  1
  Br  Br37  1  0.19437080  0.00396974  0.27769773  1
  Br  Br38  1  0.72044884  0.98508574  0.24451952  1
  Br  Br39  1  0.95543154  0.24036342  0.53421963  1
  Br  Br40  1  0.24454061  0.00445783  0.67896746  1
  Br  Br41  1  0.76341522  0.98432835  0.78974034  1
  Br  Br42  1  0.49730966  0.71386236  0.01286101  1
  Br  Br43  1  0.72027582  0.50034427  0.26700510  1
  Br  Br44  1  0.22189132  0.50530875  0.21877275  1
  Br  Br45  1  0.94709021  0.78530781  0.48798063  1
  Br  Br46  1  0.16804289  0.53827561  0.61622391  1
  Br  Br47  1  0.76153624  0.48295844  0.81369483  1
