# generated using pymatgen
data_BaMgH10C2(Br3N2)2
_symmetry_space_group_name_H-M   'P 1'
_cell_length_a   8.21328277
_cell_length_b   11.36254768
_cell_length_c   8.20173323
_cell_angle_alpha   89.86633434
_cell_angle_beta   89.99977248
_cell_angle_gamma   89.99946958
_symmetry_Int_Tables_number   1
_chemical_formula_structural   BaMgH10C2(Br3N2)2
_chemical_formula_sum   'Ba2 Mg2 H20 C4 Br12 N8'
_cell_volume   765.41496970
_cell_formula_units_Z   2
loop_
 _symmetry_equiv_pos_site_id
 _symmetry_equiv_pos_as_xyz
  1  'x, y, z'
loop_
 _atom_site_type_symbol
 _atom_site_label
 _atom_site_symmetry_multiplicity
 _atom_site_fract_x
 _atom_site_fract_y
 _atom_site_fract_z
 _atom_site_occupancy
  C  C0  1  0.49364072  0.29080056  0.49595643  1
  C  C1  1  0.99368088  0.20919122  0.00406353  1
  C  C2  1  0.50619969  0.79080201  0.50359333  1
  C  C3  1  0.00614946  0.70920553  0.99638911  1
  N  N4  1  0.59707314  0.23832024  0.59379819  1
  N  N5  1  0.39439777  0.23806226  0.39441327  1
  N  N6  1  0.09715058  0.26167450  0.90624471  1
  N  N7  1  0.89443251  0.26192508  0.10558963  1
  N  N8  1  0.60471736  0.73797224  0.60606490  1
  N  N9  1  0.40411632  0.73838153  0.40458634  1
  N  N10  1  0.10467919  0.76204476  0.89393847  1
  N  N11  1  0.90403668  0.76161548  0.09537756  1
  H  H12  1  0.48940095  0.38659398  0.49959580  1
  H  H13  1  0.67288283  0.28830057  0.66398210  1
  H  H14  1  0.60249203  0.14916385  0.60811338  1
  H  H15  1  0.31481465  0.28822047  0.32822720  1
  H  H16  1  0.39540292  0.14950153  0.37353797  1
  H  H17  1  0.98943340  0.11339875  0.00039764  1
  H  H18  1  0.17297026  0.21169277  0.83607948  1
  H  H19  1  0.10259537  0.35083020  0.89196701  1
  H  H20  1  0.81482446  0.21176768  0.17175309  1
  H  H21  1  0.89544259  0.35048572  0.12648375  1
  H  H22  1  0.50972959  0.88662717  0.50024735  1
  H  H23  1  0.67475740  0.78825455  0.68181941  1
  H  H24  1  0.61993710  0.64884346  0.61107396  1
  H  H25  1  0.33705586  0.78827973  0.32556002  1
  H  H26  1  0.38345171  0.64981526  0.40600503  1
  H  H27  1  0.00969221  0.61337967  0.99973075  1
  H  H28  1  0.17474382  0.71177036  0.81819699  1
  H  H29  1  0.11988856  0.85117412  0.88894209  1
  H  H30  1  0.83696506  0.71170970  0.17438633  1
  H  H31  1  0.88334855  0.85018010  0.09395364  1
  Mg  Mg32  1  0.49916924  0.99997767  0.99808363  1
  Mg  Mg33  1  0.99916807  0.50003447  0.50192841  1
  Ba  Ba34  1  0.00079652  0.00005220  0.49748371  1
  Ba  Ba35  1  0.50079580  0.49996086  0.00252252  1
  Br  Br36  1  0.49883756  0.22741036  0.99378216  1
  Br  Br37  1  0.23045363  0.98778303  0.18944435  1
  Br  Br38  1  0.69080766  0.01508040  0.26855310  1
  Br  Br39  1  0.99880475  0.27260171  0.50625154  1
  Br  Br40  1  0.30800280  0.01102892  0.72891412  1
  Br  Br41  1  0.76956988  0.98616743  0.80629863  1
  Br  Br42  1  0.50233919  0.77259871  0.00479328  1
  Br  Br43  1  0.73043499  0.51222227  0.31057291  1
  Br  Br44  1  0.19079549  0.48491577  0.23143876  1
  Br  Br45  1  0.00237615  0.72741257  0.49516486  1
  Br  Br46  1  0.26956865  0.51384747  0.69371051  1
  Br  Br47  1  0.80799535  0.48898411  0.77109382  1
