# generated using pymatgen
data_MgSnH10C2(Br3N2)2
_symmetry_space_group_name_H-M   'P 1'
_cell_length_a   8.06944936
_cell_length_b   11.03589942
_cell_length_c   8.05968425
_cell_angle_alpha   89.90372553
_cell_angle_beta   90.00018136
_cell_angle_gamma   90.00100506
_symmetry_Int_Tables_number   1
_chemical_formula_structural   MgSnH10C2(Br3N2)2
_chemical_formula_sum   'Mg2 Sn2 H20 C4 Br12 N8'
_cell_volume   717.74313790
_cell_formula_units_Z   2
loop_
 _symmetry_equiv_pos_site_id
 _symmetry_equiv_pos_as_xyz
  1  'x, y, z'
loop_
 _atom_site_type_symbol
 _atom_site_label
 _atom_site_symmetry_multiplicity
 _atom_site_fract_x
 _atom_site_fract_y
 _atom_site_fract_z
 _atom_site_occupancy
  C  C0  1  0.49418188  0.29094096  0.49603368  1
  C  C1  1  0.99423296  0.20905413  0.00397647  1
  C  C2  1  0.50568626  0.79094600  0.50355035  1
  C  C3  1  0.00563689  0.70905613  0.99643559  1
  N  N4  1  0.59915191  0.23729123  0.59583712  1
  N  N5  1  0.39347841  0.23653120  0.39304382  1
  N  N6  1  0.09922184  0.26270191  0.90421030  1
  N  N7  1  0.89351634  0.26346034  0.10696539  1
  N  N8  1  0.60578515  0.73650429  0.60733560  1
  N  N9  1  0.40177068  0.73732463  0.40287235  1
  N  N10  1  0.10574521  0.76351470  0.89266577  1
  N  N11  1  0.90168821  0.76267658  0.09709914  1
  H  H12  1  0.48996716  0.38950835  0.49921038  1
  H  H13  1  0.67356085  0.28945109  0.66927474  1
  H  H14  1  0.60949869  0.14549193  0.60726293  1
  H  H15  1  0.31525621  0.28857871  0.32308582  1
  H  H16  1  0.38957246  0.14491633  0.37589738  1
  H  H17  1  0.98999681  0.11048691  0.00078301  1
  H  H18  1  0.17364121  0.21054495  0.83077671  1
  H  H19  1  0.10959882  0.35450444  0.89280872  1
  H  H20  1  0.81527296  0.21141298  0.17689861  1
  H  H21  1  0.88962237  0.35507539  0.12412263  1
  H  H22  1  0.50949077  0.88953864  0.50049045  1
  H  H23  1  0.67942618  0.78860860  0.68177393  1
  H  H24  1  0.61750220  0.64462540  0.61701930  1
  H  H25  1  0.33145857  0.78944479  0.32518833  1
  H  H26  1  0.38446623  0.64577375  0.39883638  1
  H  H27  1  0.00945578  0.61046819  0.99949670  1
  H  H28  1  0.17940556  0.71141404  0.81824296  1
  H  H29  1  0.11745151  0.85538777  0.88299091  1
  H  H30  1  0.83137318  0.71054316  0.17476709  1
  H  H31  1  0.88436573  0.85422016  0.10112520  1
  Mg  Mg32  1  0.50031249  0.00000882  0.99846966  1
  Mg  Mg33  1  0.00032206  0.50000321  0.50153455  1
  Sn  Sn34  1  0.00186684  0.00003095  0.49777294  1
  Sn  Sn35  1  0.50187293  0.49998219  0.00222655  1
  Br  Br36  1  0.49848193  0.23669552  0.99555357  1
  Br  Br37  1  0.22806276  0.98663534  0.20533363  1
  Br  Br38  1  0.70694329  0.01263855  0.26921424  1
  Br  Br39  1  0.99844107  0.26331499  0.50448914  1
  Br  Br40  1  0.29201191  0.01286446  0.72646997  1
  Br  Br41  1  0.77059353  0.98797666  0.79009732  1
  Br  Br42  1  0.50151059  0.76332353  0.00315819  1
  Br  Br43  1  0.72805183  0.51336144  0.29467431  1
  Br  Br44  1  0.20693237  0.48736284  0.23078388  1
  Br  Br45  1  0.00154946  0.73668764  0.49680276  1
  Br  Br46  1  0.27058930  0.51203997  0.70991093  1
  Br  Br47  1  0.79199797  0.48713917  0.77353536  1
