# generated using pymatgen
data_MgCdH10C2(Br3N2)2
_symmetry_space_group_name_H-M   'P 1'
_cell_length_a   7.94731687
_cell_length_b   10.76967053
_cell_length_c   7.93639147
_cell_angle_alpha   89.94414950
_cell_angle_beta   89.99999989
_cell_angle_gamma   89.99566413
_symmetry_Int_Tables_number   1
_chemical_formula_structural   MgCdH10C2(Br3N2)2
_chemical_formula_sum   'Mg2 Cd2 H20 C4 Br12 N8'
_cell_volume   679.27529700
_cell_formula_units_Z   2
loop_
 _symmetry_equiv_pos_site_id
 _symmetry_equiv_pos_as_xyz
  1  'x, y, z'
loop_
 _atom_site_type_symbol
 _atom_site_label
 _atom_site_symmetry_multiplicity
 _atom_site_fract_x
 _atom_site_fract_y
 _atom_site_fract_z
 _atom_site_occupancy
  C  C0  1  0.49440355  0.29168092  0.49610390  1
  C  C1  1  0.99448741  0.20831893  0.00388060  1
  C  C2  1  0.50557774  0.79168743  0.50369192  1
  C  C3  1  0.00555436  0.70831583  0.99626517  1
  N  N4  1  0.60065463  0.23667612  0.59742545  1
  N  N5  1  0.39227144  0.23566073  0.39192927  1
  N  N6  1  0.10072925  0.26332261  0.90263216  1
  N  N7  1  0.89231087  0.26433299  0.10808975  1
  N  N8  1  0.60704261  0.73565383  0.60874594  1
  N  N9  1  0.40025216  0.73668879  0.40165448  1
  N  N10  1  0.10700086  0.76435527  0.89126078  1
  N  N11  1  0.90017062  0.76330945  0.09831675  1
  H  H12  1  0.49031237  0.39258075  0.49898906  1
  H  H13  1  0.67479337  0.29013337  0.67349677  1
  H  H14  1  0.61322542  0.14266624  0.60661457  1
  H  H15  1  0.31438178  0.28887310  0.31918931  1
  H  H16  1  0.38559378  0.14161565  0.37769574  1
  H  H17  1  0.99035159  0.10741143  0.00099598  1
  H  H18  1  0.17488993  0.20986096  0.82654604  1
  H  H19  1  0.11333447  0.35732273  0.89346535  1
  H  H20  1  0.81441499  0.21112005  0.18078524  1
  H  H21  1  0.88565290  0.35838119  0.12232593  1
  H  H22  1  0.50956912  0.89259079  0.50080013  1
  H  H23  1  0.68348668  0.78886973  0.68283875  1
  H  H24  1  0.61607530  0.64152875  0.62079063  1
  H  H25  1  0.32722804  0.79015609  0.32433769  1
  H  H26  1  0.38544062  0.64275659  0.39488479  1
  H  H27  1  0.00954227  0.60741434  0.99916997  1
  H  H28  1  0.18347410  0.71115690  0.81717418  1
  H  H29  1  0.11602881  0.85848741  0.87922544  1
  H  H30  1  0.82715061  0.70982840  0.17560566  1
  H  H31  1  0.88534253  0.85724107  0.10507451  1
  Mg  Mg32  1  0.49893683  0.99999172  0.99791745  1
  Mg  Mg33  1  0.99893946  0.50002252  0.50210583  1
  Cd  Cd34  1  0.00092905  0.00001939  0.49775373  1
  Cd  Cd35  1  0.50094242  0.49999461  0.00226108  1
  Br  Br36  1  0.49863693  0.24743300  0.99616381  1
  Br  Br37  1  0.22400913  0.98616389  0.20989869  1
  Br  Br38  1  0.71185883  0.01229448  0.27300617  1
  Br  Br39  1  0.99860221  0.25257686  0.50389126  1
  Br  Br40  1  0.28861555  0.01373457  0.72267678  1
  Br  Br41  1  0.77512455  0.98782691  0.78569358  1
  Br  Br42  1  0.50152604  0.75267649  0.00352178  1
  Br  Br43  1  0.72399834  0.51383296  0.29011507  1
  Br  Br44  1  0.21185607  0.48771530  0.22699893  1
  Br  Br45  1  0.00157434  0.74733577  0.49644049  1
  Br  Br46  1  0.27511914  0.51218624  0.71432290  1
  Br  Br47  1  0.78860625  0.48625982  0.77733529  1
