# generated using pymatgen
data_MgH10PdC2(Br3N2)2
_symmetry_space_group_name_H-M   'P 1'
_cell_length_a   7.65131139
_cell_length_b   11.08843810
_cell_length_c   8.44001685
_cell_angle_alpha   90.09180989
_cell_angle_beta   89.96790527
_cell_angle_gamma   89.98931895
_symmetry_Int_Tables_number   1
_chemical_formula_structural   MgH10PdC2(Br3N2)2
_chemical_formula_sum   'Mg2 H20 Pd2 C4 Br12 N8'
_cell_volume   716.05920787
_cell_formula_units_Z   2
loop_
 _symmetry_equiv_pos_site_id
 _symmetry_equiv_pos_as_xyz
  1  'x, y, z'
loop_
 _atom_site_type_symbol
 _atom_site_label
 _atom_site_symmetry_multiplicity
 _atom_site_fract_x
 _atom_site_fract_y
 _atom_site_fract_z
 _atom_site_occupancy
  C  C0  1  0.49690908  0.28838724  0.49608199  1
  C  C1  1  0.99680952  0.21158030  0.00354995  1
  C  C2  1  0.50217149  0.78676865  0.50982029  1
  C  C3  1  0.00283894  0.71319427  0.99034225  1
  N  N4  1  0.57495475  0.23947207  0.61780631  1
  N  N5  1  0.40402722  0.23024544  0.38963837  1
  N  N6  1  0.07525254  0.26041341  0.88190780  1
  N  N7  1  0.90456332  0.26988628  0.11038145  1
  N  N8  1  0.58403653  0.73106019  0.62449809  1
  N  N9  1  0.42324966  0.73517893  0.38976265  1
  N  N10  1  0.08485017  0.76875671  0.87552896  1
  N  N11  1  0.92357954  0.76495955  0.11016871  1
  H  H12  1  0.51172726  0.38555707  0.48111632  1
  H  H13  1  0.64429406  0.29418811  0.69293981  1
  H  H14  1  0.57389484  0.14906693  0.64114119  1
  H  H15  1  0.35090422  0.27697417  0.29740735  1
  H  H16  1  0.37764886  0.14014933  0.39656843  1
  H  H17  1  0.01063757  0.11429079  0.01801194  1
  H  H18  1  0.14407851  0.20551284  0.80649260  1
  H  H19  1  0.07507456  0.35086493  0.85892043  1
  H  H20  1  0.85120208  0.22324129  0.20261054  1
  H  H21  1  0.87913398  0.36015595  0.10396229  1
  H  H22  1  0.49862404  0.88492797  0.51497916  1
  H  H23  1  0.64111365  0.78119048  0.71195433  1
  H  H24  1  0.59436790  0.63949616  0.63250488  1
  H  H25  1  0.36158409  0.78767327  0.30740288  1
  H  H26  1  0.41962882  0.64420608  0.37350981  1
  H  H27  1  0.99954461  0.61503018  0.98551861  1
  H  H28  1  0.14219798  0.71845527  0.78830455  1
  H  H29  1  0.09498405  0.86029063  0.86719452  1
  H  H30  1  0.86184143  0.71259530  0.19265656  1
  H  H31  1  0.91960630  0.85597318  0.12602043  1
  Mg  Mg32  1  0.55815478  0.03688945  0.05675218  1
  Mg  Mg33  1  0.05831478  0.46330271  0.44375700  1
  Pd  Pd34  1  0.00616949  0.02180030  0.48715893  1
  Pd  Pd35  1  0.50661165  0.47823039  0.01294990  1
  Br  Br36  1  0.47912674  0.25399247  0.99519504  1
  Br  Br37  1  0.27253872  0.97257461  0.15913184  1
  Br  Br38  1  0.73512661  0.01799426  0.31428239  1
  Br  Br39  1  0.97886699  0.24610935  0.50455526  1
  Br  Br40  1  0.24803250  0.02175117  0.67669490  1
  Br  Br41  1  0.73427262  0.98077850  0.82760467  1
  Br  Br42  1  0.50317718  0.69660405  0.00775162  1
  Br  Br43  1  0.77294353  0.52766410  0.34102111  1
  Br  Br44  1  0.23550190  0.48207339  0.18606119  1
  Br  Br45  1  0.00255025  0.80342139  0.49256305  1
  Br  Br46  1  0.23476529  0.51891000  0.67268067  1
  Br  Br47  1  0.74853474  0.47822388  0.82324153  1
