# generated using pymatgen
data_SrMgH10C2(Br3N2)2
_symmetry_space_group_name_H-M   'P 1'
_cell_length_a   8.10134173
_cell_length_b   11.10505448
_cell_length_c   8.09122471
_cell_angle_alpha   89.87466466
_cell_angle_beta   89.99994773
_cell_angle_gamma   90.00007794
_symmetry_Int_Tables_number   1
_chemical_formula_structural   SrMgH10C2(Br3N2)2
_chemical_formula_sum   'Sr2 Mg2 H20 C4 Br12 N8'
_cell_volume   727.93209633
_cell_formula_units_Z   2
loop_
 _symmetry_equiv_pos_site_id
 _symmetry_equiv_pos_as_xyz
  1  'x, y, z'
loop_
 _atom_site_type_symbol
 _atom_site_label
 _atom_site_symmetry_multiplicity
 _atom_site_fract_x
 _atom_site_fract_y
 _atom_site_fract_z
 _atom_site_occupancy
  C  C0  1  0.49390749  0.29114233  0.49607955  1
  C  C1  1  0.99395639  0.20885245  0.00393267  1
  C  C2  1  0.50596881  0.79115371  0.50358863  1
  C  C3  1  0.00591879  0.70885098  0.99639241  1
  N  N4  1  0.59847100  0.23770469  0.59543052  1
  N  N5  1  0.39359023  0.23712081  0.39334308  1
  N  N6  1  0.09854305  0.26228870  0.90461827  1
  N  N7  1  0.89362278  0.26286906  0.10666433  1
  N  N8  1  0.60575696  0.73709151  0.60703944  1
  N  N9  1  0.40243058  0.73771095  0.40336312  1
  N  N10  1  0.10571388  0.76292390  0.89296791  1
  N  N11  1  0.90234442  0.76228656  0.09660357  1
  H  H12  1  0.48960895  0.38911954  0.49941311  1
  H  H13  1  0.67351482  0.28922117  0.66802275  1
  H  H14  1  0.60683484  0.14642329  0.60800971  1
  H  H15  1  0.31472562  0.28866724  0.32446865  1
  H  H16  1  0.39152330  0.14620007  0.37476115  1
  H  H17  1  0.98963970  0.11087439  0.00058196  1
  H  H18  1  0.17360293  0.21077421  0.83203502  1
  H  H19  1  0.10693817  0.35357420  0.89206749  1
  H  H20  1  0.81473884  0.21132309  0.17551213  1
  H  H21  1  0.89156770  0.35378807  0.12525779  1
  H  H22  1  0.50964187  0.88914484  0.50034565  1
  H  H23  1  0.67840840  0.78872587  0.68205672  1
  H  H24  1  0.61891378  0.64579775  0.61497185  1
  H  H25  1  0.33296276  0.78919420  0.32507877  1
  H  H26  1  0.38382658  0.64682457  0.40155974  1
  H  H27  1  0.00960027  0.61086105  0.99963559  1
  H  H28  1  0.17839240  0.71129732  0.81795922  1
  H  H29  1  0.11886590  0.85421954  0.88504337  1
  H  H30  1  0.83287061  0.71079432  0.17486604  1
  H  H31  1  0.88372254  0.85316762  0.09839788  1
  Mg  Mg32  1  0.49891465  0.99998522  0.99803696  1
  Mg  Mg33  1  0.99891541  0.50002721  0.50197768  1
  Sr  Sr34  1  0.00082838  0.00003862  0.49771384  1
  Sr  Sr35  1  0.50082687  0.49997463  0.00229156  1
  Br  Br36  1  0.49885152  0.23313728  0.99514289  1
  Br  Br37  1  0.22846589  0.98749168  0.20085248  1
  Br  Br38  1  0.70268946  0.01322377  0.27001734  1
  Br  Br39  1  0.99881751  0.26687499  0.50489229  1
  Br  Br40  1  0.29688827  0.01181129  0.72687819  1
  Br  Br41  1  0.77131138  0.98753196  0.79472891  1
  Br  Br42  1  0.50201250  0.76687787  0.00384712  1
  Br  Br43  1  0.72845223  0.51250941  0.29915920  1
  Br  Br44  1  0.20268142  0.48677806  0.22997690  1
  Br  Br45  1  0.00205098  0.73313343  0.49611289  1
  Br  Br46  1  0.27130977  0.51248433  0.70528021  1
  Br  Br47  1  0.79687874  0.48819519  0.77312821  1
