# generated using pymatgen
data_MgGeH10C2(Br3N2)2
_symmetry_space_group_name_H-M   'P 1'
_cell_length_a   8.40228719
_cell_length_b   10.44566645
_cell_length_c   8.41539858
_cell_angle_alpha   89.60346215
_cell_angle_beta   89.14395044
_cell_angle_gamma   89.65492117
_symmetry_Int_Tables_number   1
_chemical_formula_structural   MgGeH10C2(Br3N2)2
_chemical_formula_sum   'Mg2 Ge2 H20 C4 Br12 N8'
_cell_volume   738.48533987
_cell_formula_units_Z   2
loop_
 _symmetry_equiv_pos_site_id
 _symmetry_equiv_pos_as_xyz
  1  'x, y, z'
loop_
 _atom_site_type_symbol
 _atom_site_label
 _atom_site_symmetry_multiplicity
 _atom_site_fract_x
 _atom_site_fract_y
 _atom_site_fract_z
 _atom_site_occupancy
  C  C0  1  0.49143426  0.29235452  0.49486626  1
  C  C1  1  0.00283859  0.20779245  0.00723353  1
  C  C2  1  0.49810212  0.79256335  0.49521181  1
  C  C3  1  0.00832281  0.70759882  0.00407423  1
  N  N4  1  0.58599274  0.23843736  0.59837987  1
  N  N5  1  0.39498976  0.23305615  0.39965245  1
  N  N6  1  0.10761557  0.26226796  0.91239013  1
  N  N7  1  0.90593767  0.26680369  0.10608045  1
  N  N8  1  0.60056673  0.73526252  0.58796207  1
  N  N9  1  0.40177306  0.73655713  0.39682568  1
  N  N10  1  0.10478526  0.76642191  0.90443290  1
  N  N11  1  0.91122256  0.76249634  0.10628919  1
  H  H12  1  0.49349281  0.39634363  0.48665504  1
  H  H13  1  0.65705467  0.29453493  0.66636312  1
  H  H14  1  0.59225983  0.14198856  0.61719728  1
  H  H15  1  0.32623612  0.28681693  0.32463101  1
  H  H16  1  0.38366580  0.13605751  0.39486333  1
  H  H17  1  0.99603249  0.10380931  0.00433729  1
  H  H18  1  0.17400860  0.20602921  0.83682746  1
  H  H19  1  0.12513229  0.35873785  0.90549252  1
  H  H20  1  0.82741793  0.21390181  0.17293659  1
  H  H21  1  0.89511756  0.36396058  0.11176624  1
  H  H22  1  0.49203904  0.89648418  0.50105508  1
  H  H23  1  0.66965650  0.78907958  0.66058790  1
  H  H24  1  0.61760213  0.63858735  0.59094287  1
  H  H25  1  0.32758347  0.79250838  0.32966549  1
  H  H26  1  0.39514933  0.63990259  0.38254549  1
  H  H27  1  0.01021516  0.60343770  0.00251383  1
  H  H28  1  0.17374651  0.71297954  0.82838977  1
  H  H29  1  0.10636329  0.86331949  0.88878136  1
  H  H30  1  0.83768991  0.70615463  0.17499736  1
  H  H31  1  0.90012584  0.85917371  0.11914263  1
  Mg  Mg32  1  0.41785261  0.99810584  0.98415393  1
  Mg  Mg33  1  0.98541202  0.49848209  0.42032852  1
  Ge  Ge34  1  0.96682406  0.00395014  0.50564178  1
  Ge  Ge35  1  0.50796808  0.50374898  0.96819257  1
  Br  Br36  1  0.52448358  0.21963307  0.00766887  1
  Br  Br37  1  0.21852046  0.98307470  0.21007062  1
  Br  Br38  1  0.73855074  0.01365403  0.30980004  1
  Br  Br39  1  0.99721540  0.27478778  0.53197493  1
  Br  Br40  1  0.28496315  0.01463820  0.71931573  1
  Br  Br41  1  0.79773996  0.98893316  0.75874754  1
  Br  Br42  1  0.53112218  0.77488137  0.99812073  1
  Br  Br43  1  0.72055690  0.51465853  0.28667982  1
  Br  Br44  1  0.21233910  0.48316663  0.22165096  1
  Br  Br45  1  0.00959084  0.72053958  0.52406394  1
  Br  Br46  1  0.31125378  0.51336765  0.74054571  1
  Br  Br47  1  0.76145605  0.48902155  0.80005883  1
