# generated using pymatgen
data_MgGaH10C2(Br3N2)2
_symmetry_space_group_name_H-M   'P 1'
_cell_length_a   8.34664701
_cell_length_b   10.35216337
_cell_length_c   8.54094271
_cell_angle_alpha   87.68212888
_cell_angle_beta   90.00142953
_cell_angle_gamma   91.43326259
_symmetry_Int_Tables_number   1
_chemical_formula_structural   MgGaH10C2(Br3N2)2
_chemical_formula_sum   'Mg2 Ga2 H20 C4 Br12 N8'
_cell_volume   737.15258439
_cell_formula_units_Z   2
loop_
 _symmetry_equiv_pos_site_id
 _symmetry_equiv_pos_as_xyz
  1  'x, y, z'
loop_
 _atom_site_type_symbol
 _atom_site_label
 _atom_site_symmetry_multiplicity
 _atom_site_fract_x
 _atom_site_fract_y
 _atom_site_fract_z
 _atom_site_occupancy
  C  C0  1  0.49866563  0.30027735  0.48765311  1
  C  C1  1  0.00828993  0.30023188  0.98206472  1
  C  C2  1  0.50577367  0.70338671  0.47752298  1
  C  C3  1  0.94418784  0.72107940  0.99888566  1
  N  N4  1  0.60416927  0.24202730  0.57727666  1
  N  N5  1  0.40034252  0.24281521  0.39126993  1
  N  N6  1  0.13112859  0.25355603  0.90889608  1
  N  N7  1  0.92399739  0.23788655  0.09156758  1
  N  N8  1  0.57508390  0.75373831  0.59912466  1
  N  N9  1  0.38077682  0.74969962  0.40325612  1
  N  N10  1  0.08128754  0.71731677  0.92348191  1
  N  N11  1  0.91656268  0.79392867  0.11708709  1
  H  H12  1  0.48962421  0.40449761  0.49578123  1
  H  H13  1  0.67617009  0.29729031  0.64649500  1
  H  H14  1  0.62470741  0.14564300  0.57175629  1
  H  H15  1  0.31956972  0.29759180  0.32960617  1
  H  H16  1  0.39810717  0.14513558  0.37966288  1
  H  H17  1  0.17941519  0.16716304  0.94304626  1
  H  H18  1  0.18912850  0.31200090  0.82574812  1
  H  H19  1  0.97093232  0.39701320  0.94522475  1
  H  H20  1  0.95269056  0.14770362  0.13317384  1
  H  H21  1  0.83440926  0.28448806  0.14595723  1
  H  H22  1  0.53096528  0.83121041  0.65339217  1
  H  H23  1  0.67111524  0.70777809  0.64792486  1
  H  H24  1  0.56060283  0.61793831  0.43106529  1
  H  H25  1  0.31942302  0.82627392  0.44164002  1
  H  H26  1  0.32622285  0.69396362  0.32119123  1
  H  H27  1  0.84615891  0.65895592  0.95898235  1
  H  H28  1  0.09538172  0.65326387  0.83613273  1
  H  H29  1  0.18154191  0.76859055  0.95575237  1
  H  H30  1  0.00227751  0.85735590  0.15746635  1
  H  H31  1  0.80504556  0.79521549  0.16544689  1
  Mg  Mg32  1  0.48953258  0.99715024  0.09914766  1
  Mg  Mg33  1  0.00221315  0.46991484  0.48523025  1
  Ga  Ga34  1  0.02996788  0.00465418  0.61822779  1
  Ga  Ga35  1  0.49183626  0.48106009  0.01632801  1
  Br  Br36  1  0.53174143  0.21649723  0.96730020  1
  Br  Br37  1  0.20488786  0.00717586  0.18390766  1
  Br  Br38  1  0.66898036  0.99844828  0.32559394  1
  Br  Br39  1  0.99728811  0.20508963  0.46707167  1
  Br  Br40  1  0.30139639  0.00846942  0.69660068  1
  Br  Br41  1  0.83483971  0.01242089  0.81257821  1
  Br  Br42  1  0.50724967  0.78048430  0.98369015  1
  Br  Br43  1  0.76731025  0.48997007  0.27548553  1
  Br  Br44  1  0.20270202  0.49619026  0.24003312  1
  Br  Br45  1  0.99074524  0.80504753  0.49721438  1
  Br  Br46  1  0.23892270  0.50245481  0.67708092  1
  Br  Br47  1  0.79665069  0.50001836  0.71108203  1
