# generated using pymatgen
data_BaSiH12C2(I3N)2
_symmetry_space_group_name_H-M   'P 1'
_cell_length_a   8.63247497
_cell_length_b   12.47475679
_cell_length_c   8.45511188
_cell_angle_alpha   88.22594287
_cell_angle_beta   90.00390100
_cell_angle_gamma   90.00538257
_symmetry_Int_Tables_number   1
_chemical_formula_structural   BaSiH12C2(I3N)2
_chemical_formula_sum   'Ba2 Si2 H24 C4 I12 N4'
_cell_volume   910.07787298
_cell_formula_units_Z   2
loop_
 _symmetry_equiv_pos_site_id
 _symmetry_equiv_pos_as_xyz
  1  'x, y, z'
loop_
 _atom_site_type_symbol
 _atom_site_label
 _atom_site_symmetry_multiplicity
 _atom_site_fract_x
 _atom_site_fract_y
 _atom_site_fract_z
 _atom_site_occupancy
  C  C0  1  0.39637975  0.25051737  0.41545410  1
  C  C1  1  0.89759983  0.24966227  0.08576254  1
  C  C2  1  0.60361687  0.74948475  0.58456200  1
  C  C3  1  0.10240722  0.75033820  0.91425027  1
  N  N4  1  0.53475970  0.24953231  0.51972719  1
  N  N5  1  0.03528625  0.25052221  0.98055889  1
  N  N6  1  0.46523673  0.75047333  0.48028919  1
  N  N7  1  0.96472166  0.74947535  0.01945511  1
  H  H8  1  0.43500976  0.25091472  0.29200018  1
  H  H9  1  0.32907229  0.17774868  0.44106123  1
  H  H10  1  0.32726555  0.32192822  0.43799533  1
  H  H11  1  0.60197009  0.18239446  0.49742381  1
  H  H12  1  0.60254424  0.31754495  0.49679456  1
  H  H13  1  0.50551600  0.24721992  0.63974549  1
  H  H14  1  0.93703630  0.24930950  0.20892210  1
  H  H15  1  0.82818473  0.17828896  0.06374891  1
  H  H16  1  0.83026824  0.32249865  0.06056871  1
  H  H17  1  0.10310265  0.18245382  0.00319752  1
  H  H18  1  0.10276656  0.31761862  0.00242232  1
  H  H19  1  0.00537731  0.25279228  0.86077336  1
  H  H20  1  0.56498934  0.74908990  0.70801534  1
  H  H21  1  0.67272955  0.67807455  0.56201995  1
  H  H22  1  0.67092635  0.82225413  0.55895232  1
  H  H23  1  0.39802647  0.81760894  0.50259440  1
  H  H24  1  0.39745096  0.68245764  0.50322257  1
  H  H25  1  0.49447885  0.75278447  0.36027200  1
  H  H26  1  0.06297005  0.75069365  0.79109068  1
  H  H27  1  0.17182267  0.82171124  0.93626731  1
  H  H28  1  0.16973909  0.67750148  0.93943990  1
  H  H29  1  0.89690341  0.81754229  0.99681936  1
  H  H30  1  0.89724393  0.68237772  0.99759069  1
  H  H31  1  0.99463176  0.74720408  0.13924068  1
  Si  Si32  1  0.50000257  0.00000614  0.00001037  1
  Si  Si33  1  0.99999255  0.50000134  0.49999567  1
  Ba  Ba34  1  0.00000293  0.00000215  0.50001025  1
  Ba  Ba35  1  0.49999636  0.50000988  0.99999179  1
  I  I36  1  0.47386169  0.23350447  0.93794433  1
  I  I37  1  0.19602902  0.01031761  0.15475897  1
  I  I38  1  0.65552658  0.02193210  0.30873649  1
  I  I39  1  0.97335980  0.26650135  0.56260103  1
  I  I40  1  0.34448122  0.97807768  0.69127965  1
  I  I41  1  0.80397933  0.98968450  0.84525968  1
  I  I42  1  0.52614106  0.76651021  0.06207562  1
  I  I43  1  0.69606663  0.48946637  0.34511655  1
  I  I44  1  0.15567677  0.47823144  0.19133699  1
  I  I45  1  0.02663024  0.73350370  0.43740872  1
  I  I46  1  0.30392211  0.51053651  0.65487363  1
  I  I47  1  0.84432069  0.52177416  0.80865887  1
