# generated using pymatgen
data_MgZnH10C2(Br3N2)2
_symmetry_space_group_name_H-M   'P 1'
_cell_length_a   6.77668033
_cell_length_b   13.08585250
_cell_length_c   8.51385489
_cell_angle_alpha   89.47171636
_cell_angle_beta   90.00124008
_cell_angle_gamma   90.00585520
_symmetry_Int_Tables_number   1
_chemical_formula_structural   MgZnH10C2(Br3N2)2
_chemical_formula_sum   'Mg2 Zn2 H20 C4 Br12 N8'
_cell_volume   754.96497041
_cell_formula_units_Z   2
loop_
 _symmetry_equiv_pos_site_id
 _symmetry_equiv_pos_as_xyz
  1  'x, y, z'
loop_
 _atom_site_type_symbol
 _atom_site_label
 _atom_site_symmetry_multiplicity
 _atom_site_fract_x
 _atom_site_fract_y
 _atom_site_fract_z
 _atom_site_occupancy
  C  C0  1  0.45149289  0.31189902  0.45249917  1
  C  C1  1  0.95150937  0.18810710  0.04749454  1
  C  C2  1  0.51110332  0.80215132  0.49936516  1
  C  C3  1  0.01125596  0.69782101  1.00063009  1
  N  N4  1  0.50948769  0.29905186  0.59843094  1
  N  N5  1  0.47503955  0.24404824  0.34202451  1
  N  N6  1  0.00957569  0.20105653  0.90160466  1
  N  N7  1  0.97482764  0.25593327  0.15803939  1
  N  N8  1  0.56373075  0.73135309  0.60047337  1
  N  N9  1  0.50886226  0.78970567  0.34640988  1
  N  N10  1  0.06370304  0.76866136  0.89950653  1
  N  N11  1  0.00895312  0.71027249  0.15356885  1
  H  H12  1  0.38255847  0.38454125  0.42117398  1
  H  H13  1  0.47741241  0.35256791  0.68048391  1
  H  H14  1  0.58002409  0.23494190  0.63707688  1
  H  H15  1  0.43569430  0.26016064  0.22824924  1
  H  H16  1  0.54082792  0.17441873  0.36321339  1
  H  H17  1  0.88272353  0.11540216  0.07872216  1
  H  H18  1  0.97773584  0.14755379  0.81946659  1
  H  H19  1  0.07999918  0.26523642  0.86307349  1
  H  H20  1  0.93545928  0.23974928  0.27178279  1
  H  H21  1  0.04049746  0.32560717  0.13693338  1
  H  H22  1  0.46867034  0.87701186  0.54389340  1
  H  H23  1  0.56263744  0.74441139  0.71934391  1
  H  H24  1  0.61043404  0.66126402  0.56173748  1
  H  H25  1  0.46204643  0.84795117  0.27454997  1
  H  H26  1  0.54156404  0.72162694  0.29508259  1
  H  H27  1  0.96903688  0.62292412  0.95609519  1
  H  H28  1  0.06264945  0.75559107  0.78064576  1
  H  H29  1  0.11020905  0.83878813  0.93824020  1
  H  H30  1  0.96226324  0.65199613  0.22543775  1
  H  H31  1  0.04144521  0.77838653  0.20490184  1
  Mg  Mg32  1  0.42434071  0.04305954  0.89346978  1
  Mg  Mg33  1  0.92432342  0.45691242  0.60654307  1
  Zn  Zn34  1  0.94153443  0.95929030  0.56414611  1
  Zn  Zn35  1  0.44161044  0.54069941  0.93583653  1
  Br  Br36  1  0.49062553  0.22138445  0.95847374  1
  Br  Br37  1  0.24662495  0.96404978  0.11455681  1
  Br  Br38  1  0.75372722  0.03154267  0.35758963  1
  Br  Br39  1  0.99054238  0.27858656  0.54153795  1
  Br  Br40  1  0.26420903  0.04293470  0.62254796  1
  Br  Br41  1  0.76360255  0.96795120  0.82446415  1
  Br  Br42  1  0.53357729  0.71340865  0.98287192  1
  Br  Br43  1  0.74669207  0.53595059  0.38545155  1
  Br  Br44  1  0.25376412  0.46840548  0.14234941  1
  Br  Br45  1  0.03351064  0.78658427  0.51711510  1
  Br  Br46  1  0.26363154  0.53203903  0.67551758  1
  Br  Br47  1  0.76427311  0.45707234  0.87748246  1
