# generated using pymatgen
data_MgScH10C2(Br3N2)2
_symmetry_space_group_name_H-M   'P 1'
_cell_length_a   9.07817360
_cell_length_b   8.89243339
_cell_length_c   9.46142821
_cell_angle_alpha   88.73219703
_cell_angle_beta   80.00731378
_cell_angle_gamma   88.49900582
_symmetry_Int_Tables_number   1
_chemical_formula_structural   MgScH10C2(Br3N2)2
_chemical_formula_sum   'Mg2 Sc2 H20 C4 Br12 N8'
_cell_volume   751.82841184
_cell_formula_units_Z   2
loop_
 _symmetry_equiv_pos_site_id
 _symmetry_equiv_pos_as_xyz
  1  'x, y, z'
loop_
 _atom_site_type_symbol
 _atom_site_label
 _atom_site_symmetry_multiplicity
 _atom_site_fract_x
 _atom_site_fract_y
 _atom_site_fract_z
 _atom_site_occupancy
  C  C0  1  0.51797834  0.29918165  0.46385553  1
  C  C1  1  0.98181420  0.26127156  0.00093795  1
  C  C2  1  0.42684542  0.71313555  0.52694259  1
  C  C3  1  0.02604494  0.83168139  0.00353086  1
  N  N4  1  0.51821279  0.33744734  0.59787167  1
  N  N5  1  0.39844405  0.27647548  0.40821397  1
  N  N6  1  0.11368550  0.19313857  0.98198337  1
  N  N7  1  0.92077918  0.32644702  0.12001099  1
  N  N8  1  0.56015660  0.70618959  0.56375309  1
  N  N9  1  0.39363065  0.77912095  0.41130275  1
  N  N10  1  0.36040579  0.63074143  0.86611343  1
  N  N11  1  0.95523850  0.72242868  0.96350670  1
  H  H12  1  0.29255076  0.29503378  0.46328675  1
  H  H13  1  0.61805142  0.36324606  0.62683723  1
  H  H14  1  0.62674398  0.28294482  0.39572670  1
  H  H15  1  0.40957496  0.25061749  0.30223778  1
  H  H16  1  0.47154722  0.83094970  0.33652695  1
  H  H17  1  0.17912587  0.19298691  0.05984001  1
  H  H18  1  0.16296197  0.15730416  0.88214097  1
  H  H19  1  0.91910851  0.26291466  0.91226723  1
  H  H20  1  0.81798559  0.38134869  0.13068239  1
  H  H21  1  0.97466529  0.33330886  0.20630328  1
  H  H22  1  0.65243449  0.74816982  0.49915378  1
  H  H23  1  0.57101398  0.65457961  0.65953832  1
  H  H24  1  0.42085952  0.36561663  0.66546673  1
  H  H25  1  0.28805595  0.77196070  0.38907609  1
  H  H26  1  0.33678644  0.65718669  0.59896104  1
  H  H27  1  0.27597507  0.56441661  0.84520898  1
  H  H28  1  0.34250359  0.73795217  0.83024180  1
  H  H29  1  0.11152294  0.88749163  0.92532307  1
  H  H30  1  0.87579463  0.67906880  0.04569400  1
  H  H31  1  0.00378226  0.87377530  0.11347914  1
  Mg  Mg32  1  0.52008016  0.04999827  0.84570785  1
  Mg  Mg33  1  0.96337052  0.62532907  0.76451742  1
  Sc  Sc34  1  0.91930238  0.04977901  0.47065020  1
  Sc  Sc35  1  0.45748782  0.56939608  0.03197628  1
  Br  Br36  1  0.46927396  0.26048755  0.02455680  1
  Br  Br37  1  0.16411995  0.04638274  0.29950947  1
  Br  Br38  1  0.73404314  0.98813961  0.31715462  1
  Br  Br39  1  0.89235618  0.33152195  0.47119949  1
  Br  Br40  1  0.32008707  0.01585939  0.70626185  1
  Br  Br41  1  0.79822141  0.04480054  0.75214665  1
  Br  Br42  1  0.51182510  0.86371181  0.04702981  1
  Br  Br43  1  0.65505745  0.56273700  0.21864835  1
  Br  Br44  1  0.21728489  0.54063829  0.21653387  1
  Br  Br45  1  0.98546018  0.75803392  0.52491627  1
  Br  Br46  1  0.15037323  0.42073403  0.69272378  1
  Br  Br47  1  0.71739549  0.50438145  0.82055690  1
