# generated using pymatgen
data_CaMgH10C2(Br3N2)2
_symmetry_space_group_name_H-M   'P 1'
_cell_length_a   8.01431639
_cell_length_b   10.90283733
_cell_length_c   8.00447762
_cell_angle_alpha   89.90111313
_cell_angle_beta   90.00017597
_cell_angle_gamma   89.99965251
_symmetry_Int_Tables_number   1
_chemical_formula_structural   CaMgH10C2(Br3N2)2
_chemical_formula_sum   'Ca2 Mg2 H20 C4 Br12 N8'
_cell_volume   699.42051070
_cell_formula_units_Z   2
loop_
 _symmetry_equiv_pos_site_id
 _symmetry_equiv_pos_as_xyz
  1  'x, y, z'
loop_
 _atom_site_type_symbol
 _atom_site_label
 _atom_site_symmetry_multiplicity
 _atom_site_fract_x
 _atom_site_fract_y
 _atom_site_fract_z
 _atom_site_occupancy
  C  C0  1  0.49419973  0.29145758  0.49618166  1
  C  C1  1  0.99425133  0.20853800  0.00382778  1
  C  C2  1  0.50567275  0.79146211  0.50357494  1
  C  C3  1  0.00562444  0.70854617  0.99640554  1
  N  N4  1  0.59955128  0.23708862  0.59682439  1
  N  N5  1  0.39314439  0.23625942  0.39247933  1
  N  N6  1  0.09962350  0.26290614  0.90322347  1
  N  N7  1  0.89317909  0.26373099  0.10752972  1
  N  N8  1  0.60658590  0.73627252  0.60769614  1
  N  N9  1  0.40097236  0.73707960  0.40255120  1
  N  N10  1  0.10654186  0.76374123  0.89231139  1
  N  N11  1  0.90089201  0.76291400  0.09741290  1
  H  H12  1  0.48994996  0.39117116  0.49926358  1
  H  H13  1  0.67405874  0.28975649  0.67137666  1
  H  H14  1  0.61034258  0.14418004  0.60770091  1
  H  H15  1  0.31479559  0.28877439  0.32137079  1
  H  H16  1  0.38853240  0.14346506  0.37609860  1
  H  H17  1  0.98997755  0.10882363  0.00073106  1
  H  H18  1  0.17414274  0.21024015  0.82867661  1
  H  H19  1  0.11044755  0.35581972  0.89237303  1
  H  H20  1  0.81481050  0.21121658  0.17861266  1
  H  H21  1  0.88857980  0.35652478  0.12392115  1
  H  H22  1  0.50944981  0.89119769  0.50049030  1
  H  H23  1  0.68138463  0.78883894  0.68218487  1
  H  H24  1  0.61770321  0.64326108  0.61795755  1
  H  H25  1  0.32948200  0.78971784  0.32476318  1
  H  H26  1  0.38433795  0.64437436  0.39797353  1
  H  H27  1  0.00940739  0.60880836  0.99949371  1
  H  H28  1  0.18136614  0.71118508  0.81783144  1
  H  H29  1  0.11765716  0.85675819  0.88205662  1
  H  H30  1  0.82939253  0.71027193  0.17518499  1
  H  H31  1  0.88423735  0.85562047  0.10198507  1
  Mg  Mg32  1  0.49862910  0.99999287  0.99800476  1
  Mg  Mg33  1  0.99863251  0.50001821  0.50201226  1
  Ca  Ca34  1  0.00076261  0.00002191  0.49790070  1
  Ca  Ca35  1  0.50076119  0.49998965  0.00210512  1
  Br  Br36  1  0.49889625  0.23831593  0.99618370  1
  Br  Br37  1  0.22557073  0.98729497  0.20936580  1
  Br  Br38  1  0.71176114  0.01182859  0.27230142  1
  Br  Br39  1  0.99886143  0.26169382  0.50385350  1
  Br  Br40  1  0.28858219  0.01240517  0.72383286  1
  Br  Br41  1  0.77397586  0.98850821  0.78588158  1
  Br  Br42  1  0.50169617  0.76170717  0.00313715  1
  Br  Br43  1  0.72556058  0.51270180  0.29064178  1
  Br  Br44  1  0.21175553  0.48817573  0.22769449  1
  Br  Br45  1  0.00173472  0.73830328  0.49682581  1
  Br  Br46  1  0.27397333  0.51150712  0.71412717  1
  Br  Br47  1  0.78857176  0.48759625  0.77617189  1
