# generated using pymatgen
data_MgSiH10C2(Br3N2)2
_symmetry_space_group_name_H-M   'P 1'
_cell_length_a   8.54192994
_cell_length_b   10.37270118
_cell_length_c   8.27619398
_cell_angle_alpha   90.92267199
_cell_angle_beta   89.99779880
_cell_angle_gamma   89.99679097
_symmetry_Int_Tables_number   1
_chemical_formula_structural   MgSiH10C2(Br3N2)2
_chemical_formula_sum   'Mg2 Si2 H20 C4 Br12 N8'
_cell_volume   733.19959600
_cell_formula_units_Z   2
loop_
 _symmetry_equiv_pos_site_id
 _symmetry_equiv_pos_as_xyz
  1  'x, y, z'
loop_
 _atom_site_type_symbol
 _atom_site_label
 _atom_site_symmetry_multiplicity
 _atom_site_fract_x
 _atom_site_fract_y
 _atom_site_fract_z
 _atom_site_occupancy
  C  C0  1  0.49639701  0.29424563  0.50021345  1
  C  C1  1  0.99639395  0.20574562  0.99978527  1
  C  C2  1  0.50043174  0.78978358  0.49993889  1
  C  C3  1  0.00049321  0.71022608  0.00004451  1
  N  N4  1  0.59632552  0.23552530  0.59380254  1
  N  N5  1  0.40303255  0.23911438  0.39428363  1
  N  N6  1  0.09635715  0.26446658  0.90624433  1
  N  N7  1  0.90300038  0.26087539  0.10571127  1
  N  N8  1  0.59283413  0.73207242  0.60198526  1
  N  N9  1  0.39871917  0.73391775  0.40290440  1
  N  N10  1  0.09284568  0.76793975  0.89796904  1
  N  N11  1  0.89878108  0.76609055  0.09711653  1
  H  H12  1  0.48841302  0.39854957  0.51335304  1
  H  H13  1  0.66288341  0.28926054  0.67224884  1
  H  H14  1  0.61583888  0.13855848  0.59128659  1
  H  H15  1  0.33229811  0.29573944  0.32455732  1
  H  H16  1  0.40195778  0.14236296  0.37101288  1
  H  H17  1  0.98839660  0.10144722  0.98660990  1
  H  H18  1  0.16296286  0.21072982  0.82782415  1
  H  H19  1  0.11589660  0.36142970  0.90880830  1
  H  H20  1  0.83222956  0.20425021  0.17539088  1
  H  H21  1  0.90192809  0.35762285  0.12900502  1
  H  H22  1  0.50968837  0.89427138  0.49448420  1
  H  H23  1  0.66795220  0.78715184  0.67074224  1
  H  H24  1  0.59341783  0.63516513  0.61953540  1
  H  H25  1  0.33614599  0.78897234  0.32466616  1
  H  H26  1  0.38600803  0.63651564  0.39100338  1
  H  H27  1  0.00978289  0.60574174  0.00551420  1
  H  H28  1  0.16795800  0.71285953  0.82917492  1
  H  H29  1  0.09338587  0.86484993  0.88038998  1
  H  H30  1  0.83626146  0.71103763  0.17538706  1
  H  H31  1  0.88603627  0.86348680  0.10899855  1
  Mg  Mg32  1  0.58534605  0.99952105  0.00888985  1
  Mg  Mg33  1  0.08536488  0.50046776  0.49114086  1
  Si  Si34  1  0.03931488  0.00773226  0.49074550  1
  Si  Si35  1  0.53932684  0.49237186  0.00926614  1
  Br  Br36  1  0.47921404  0.22711995  0.99102788  1
  Br  Br37  1  0.19242765  0.99202877  0.24370435  1
  Br  Br38  1  0.71136994  0.01670062  0.28200409  1
  Br  Br39  1  0.97920985  0.27285592  0.50898118  1
  Br  Br40  1  0.25769508  0.01542979  0.67975156  1
  Br  Br41  1  0.77925937  0.98476006  0.78278818  1
  Br  Br42  1  0.47284537  0.77811297  -0.00012408  1
  Br  Br43  1  0.69242266  0.50801576  0.25630134  1
  Br  Br44  1  0.21137498  0.48327423  0.21801268  1
  Br  Br45  1  0.97281754  0.72184476  0.50014335  1
  Br  Br46  1  0.27927257  0.51520855  0.71722632  1
  Br  Br47  1  0.75770423  0.48461288  0.82025345  1
