# generated using pymatgen
data_MgAlH10C2(Br3N2)2
_symmetry_space_group_name_H-M   'P 1'
_cell_length_a   8.29400120
_cell_length_b   10.33948913
_cell_length_c   8.50698933
_cell_angle_alpha   91.47605617
_cell_angle_beta   89.90387015
_cell_angle_gamma   90.40890700
_symmetry_Int_Tables_number   1
_chemical_formula_structural   MgAlH10C2(Br3N2)2
_chemical_formula_sum   'Mg2 Al2 H20 C4 Br12 N8'
_cell_volume   729.26166511
_cell_formula_units_Z   2
loop_
 _symmetry_equiv_pos_site_id
 _symmetry_equiv_pos_as_xyz
  1  'x, y, z'
loop_
 _atom_site_type_symbol
 _atom_site_label
 _atom_site_symmetry_multiplicity
 _atom_site_fract_x
 _atom_site_fract_y
 _atom_site_fract_z
 _atom_site_occupancy
  C  C0  1  0.51937868  0.27983316  0.49030319  1
  C  C1  1  0.01458018  0.21043498  0.00902210  1
  C  C2  1  0.49605610  0.80006424  0.50364921  1
  C  C3  1  0.00010949  0.70999815  0.00993456  1
  N  N4  1  0.58611699  0.21446908  0.60307968  1
  N  N5  1  0.38731359  0.24636362  0.41495426  1
  N  N6  1  0.08644565  0.26743662  0.89202391  1
  N  N7  1  0.89707446  0.25891955  0.09479761  1
  N  N8  1  0.60412368  0.75029285  0.59655428  1
  N  N9  1  0.40692667  0.73514445  0.40195724  1
  N  N10  1  0.10299084  0.76041854  0.91161954  1
  N  N11  1  0.90977123  0.77501991  0.11038570  1
  H  H12  1  0.57999848  0.36876146  0.45463734  1
  H  H13  1  0.69513001  0.24421310  0.64637179  1
  H  H14  1  0.53340094  0.13408463  0.64968743  1
  H  H15  1  0.33758579  0.30863790  0.33656753  1
  H  H16  1  0.32632849  0.16229017  0.43414978  1
  H  H17  1  0.06076066  0.11576718  0.04039343  1
  H  H18  1  0.17440024  0.21780637  0.83176991  1
  H  H19  1  0.04882906  0.35266463  0.84803681  1
  H  H20  1  0.84175161  0.20130019  0.17547689  1
  H  H21  1  0.84452534  0.34560829  0.07359440  1
  H  H22  1  0.47775182  0.90420191  0.51267954  1
  H  H23  1  0.66590985  0.80983664  0.67447886  1
  H  H24  1  0.63583322  0.65523718  0.58872912  1
  H  H25  1  0.32949190  0.78526567  0.33272561  1
  H  H26  1  0.41167940  0.63720372  0.38465323  1
  H  H27  1  0.98863774  0.60504329  0.00923661  1
  H  H28  1  0.16521077  0.70148100  0.83552761  1
  H  H29  1  0.12556022  0.85750325  0.90502002  1
  H  H30  1  0.83045478  0.72472246  0.17873181  1
  H  H31  1  0.90399699  0.87358901  0.11489422  1
  Mg  Mg32  1  0.50624253  0.98824313  0.00891147  1
  Mg  Mg33  1  0.98714035  0.49963812  0.40625137  1
  Al  Al34  1  0.97280359  0.98384898  0.49611311  1
  Al  Al35  1  0.51421232  0.49860601  0.89444366  1
  Br  Br36  1  0.49792330  0.29990059  0.01688019  1
  Br  Br37  1  0.25463235  0.97997406  0.20102421  1
  Br  Br38  1  0.69138532  0.01606277  0.26132941  1
  Br  Br39  1  0.98994366  0.27851407  0.51700107  1
  Br  Br40  1  0.31093946  0.01430392  0.76931886  1
  Br  Br41  1  0.76095170  0.98749381  0.82866676  1
  Br  Br42  1  0.49493104  0.70528255  0.01410316  1
  Br  Br43  1  0.71887100  0.52744674  0.28556389  1
  Br  Br44  1  0.20840071  0.48952211  0.21409134  1
  Br  Br45  1  0.01613686  0.72112488  0.53591011  1
  Br  Br46  1  0.31600667  0.50237608  0.70256831  1
  Br  Br47  1  0.77137361  0.49411193  0.78228463  1
