# generated using pymatgen
data_AlTlH10C2(Br3N2)2
_symmetry_space_group_name_H-M   'P 1'
_cell_length_a   8.41813343
_cell_length_b   10.43573304
_cell_length_c   9.09240527
_cell_angle_alpha   92.52517695
_cell_angle_beta   90.00055569
_cell_angle_gamma   90.00472744
_symmetry_Int_Tables_number   1
_chemical_formula_structural   AlTlH10C2(Br3N2)2
_chemical_formula_sum   'Al2 Tl2 H20 C4 Br12 N8'
_cell_volume   797.98665116
_cell_formula_units_Z   2
loop_
 _symmetry_equiv_pos_site_id
 _symmetry_equiv_pos_as_xyz
  1  'x, y, z'
loop_
 _atom_site_type_symbol
 _atom_site_label
 _atom_site_symmetry_multiplicity
 _atom_site_fract_x
 _atom_site_fract_y
 _atom_site_fract_z
 _atom_site_occupancy
  C  C0  1  0.52342656  0.28779947  0.51739244  1
  C  C1  1  0.02344665  0.21221486  0.98260520  1
  C  C2  1  0.51197240  0.79586389  0.51978719  1
  C  C3  1  0.01190569  0.70413913  0.98025678  1
  N  N4  1  0.58870654  0.23335992  0.62994224  1
  N  N5  1  0.40197726  0.24065711  0.44141337  1
  N  N6  1  0.08871713  0.26669315  0.87008142  1
  N  N7  1  0.90199499  0.25931929  0.05860526  1
  N  N8  1  0.60299150  0.75236590  0.62333311  1
  N  N9  1  0.41377946  0.72590941  0.43675672  1
  N  N10  1  0.10282552  0.74760735  0.87666835  1
  N  N11  1  0.91359862  0.77407682  0.06321082  1
  H  H12  1  0.57708144  0.37631346  0.48151652  1
  H  H13  1  0.67567599  0.28309211  0.68755408  1
  H  H14  1  0.53921091  0.15424642  0.67500726  1
  H  H15  1  0.35185039  0.29291739  0.36152506  1
  H  H16  1  0.34103408  0.16283907  0.47759114  1
  H  H17  1  0.07709956  0.12369486  0.01845483  1
  H  H18  1  0.17569412  0.21699522  0.81245634  1
  H  H19  1  0.03922186  0.34581519  0.82504342  1
  H  H20  1  0.85186592  0.20702831  0.13846683  1
  H  H21  1  0.84105303  0.33714086  0.02246142  1
  H  H22  1  0.51999342  0.89757539  0.49894503  1
  H  H23  1  0.67129884  0.81613108  0.68596698  1
  H  H24  1  0.60085101  0.65871801  0.65221323  1
  H  H25  1  0.34231147  0.77071449  0.36448799  1
  H  H26  1  0.38382616  0.63483258  0.46463429  1
  H  H27  1  0.02007324  0.60246235  0.00128973  1
  H  H28  1  0.17121563  0.68386212  0.81409016  1
  H  H29  1  0.10054236  0.84122881  0.84765303  1
  H  H30  1  0.84221913  0.72928952  0.13555462  1
  H  H31  1  0.88353580  0.86509282  0.03518261  1
  Al  Al32  1  0.47729591  0.99896609  0.11391578  1
  Al  Al33  1  0.97740276  0.50102706  0.38609176  1
  Tl  Tl34  1  0.97829191  0.99810631  0.52678730  1
  Tl  Tl35  1  0.47838179  0.50193954  0.97319357  1
  Br  Br36  1  0.47741394  0.19404995  0.00459527  1
  Br  Br37  1  0.23411437  0.98060918  0.23628084  1
  Br  Br38  1  0.69363420  0.01160346  0.27422404  1
  Br  Br39  1  0.97747377  0.30596791  0.49545979  1
  Br  Br40  1  0.28557617  0.02058484  0.69028883  1
  Br  Br41  1  0.81345427  0.98837506  0.81272050  1
  Br  Br42  1  0.49436936  0.80910693  0.97713181  1
  Br  Br43  1  0.73420205  0.51934244  0.26373886  1
  Br  Br44  1  0.19372675  0.48834347  0.22577099  1
  Br  Br45  1  0.99454117  0.69094014  0.52277160  1
  Br  Br46  1  0.31349167  0.51165610  0.68730574  1
  Br  Br47  1  0.78565260  0.47944810  0.80968061  1
