# generated using pymatgen
data_AlH10AuC2(Br3N2)2
_symmetry_space_group_name_H-M   'P 1'
_cell_length_a   8.29224332
_cell_length_b   10.53803186
_cell_length_c   8.81666798
_cell_angle_alpha   92.88675198
_cell_angle_beta   90.00144283
_cell_angle_gamma   89.99727796
_symmetry_Int_Tables_number   1
_chemical_formula_structural   AlH10AuC2(Br3N2)2
_chemical_formula_sum   'Al2 H20 Au2 C4 Br12 N8'
_cell_volume   769.45738611
_cell_formula_units_Z   2
loop_
 _symmetry_equiv_pos_site_id
 _symmetry_equiv_pos_as_xyz
  1  'x, y, z'
loop_
 _atom_site_type_symbol
 _atom_site_label
 _atom_site_symmetry_multiplicity
 _atom_site_fract_x
 _atom_site_fract_y
 _atom_site_fract_z
 _atom_site_occupancy
  C  C0  1  0.51943483  0.30187554  0.49536576  1
  C  C1  1  0.01937913  0.19815851  0.00468679  1
  C  C2  1  0.51729165  0.77230127  0.50291563  1
  C  C3  1  0.01731625  0.72766660  0.99703315  1
  N  N4  1  0.59301564  0.24773342  0.60673350  1
  N  N5  1  0.39048291  0.25721648  0.42484019  1
  N  N6  1  0.09294406  0.25230891  0.89332476  1
  N  N7  1  0.89038834  0.24279548  0.07517566  1
  N  N8  1  0.60185385  0.72243525  0.61010231  1
  N  N9  1  0.40411852  0.71432254  0.42122763  1
  N  N10  1  0.10194595  0.77754302  0.88990909  1
  N  N11  1  0.90416584  0.78566810  0.07873517  1
  H  H12  1  0.57120492  0.39002375  0.45687229  1
  H  H13  1  0.69430872  0.28884781  0.65287218  1
  H  H14  1  0.55501934  0.16425083  0.64906084  1
  H  H15  1  0.33861591  0.30735008  0.34138000  1
  H  H16  1  0.33502174  0.17560458  0.45625040  1
  H  H17  1  0.07118932  0.11002941  0.04320634  1
  H  H18  1  0.19428759  0.21123097  0.84723031  1
  H  H19  1  0.05490919  0.33577792  0.85098617  1
  H  H20  1  0.83853580  0.19265798  0.15862905  1
  H  H21  1  0.83490229  0.32439504  0.04375375  1
  H  H22  1  0.54644771  0.86978478  0.47701053  1
  H  H23  1  0.68159145  0.78038927  0.66955677  1
  H  H24  1  0.57921012  0.63431586  0.65074412  1
  H  H25  1  0.33935169  0.76511161  0.34674537  1
  H  H26  1  0.36206225  0.62626430  0.44295614  1
  H  H27  1  0.04638797  0.63015066  0.02286674  1
  H  H28  1  0.18164107  0.71956522  0.83043279  1
  H  H29  1  0.07937502  0.86569336  0.84932204  1
  H  H30  1  0.83934210  0.73487118  0.15316248  1
  H  H31  1  0.86218338  0.87376432  0.05706819  1
  Al  Al32  1  0.47615416  0.00144139  0.13228595  1
  Al  Al33  1  0.97614321  0.49855455  0.36769936  1
  Au  Au34  1  0.02429155  0.00904474  0.66589746  1
  Au  Au35  1  0.52419973  0.49095321  0.83415340  1
  Br  Br36  1  0.47685756  0.19280328  0.01388293  1
  Br  Br37  1  0.22541442  0.98216978  0.25253820  1
  Br  Br38  1  0.69832292  0.02031120  0.29910043  1
  Br  Br39  1  0.97686637  0.30718606  0.48608666  1
  Br  Br40  1  0.31629032  0.01337464  0.66127014  1
  Br  Br41  1  0.75160821  0.99168279  0.75693868  1
  Br  Br42  1  0.50226683  0.80700727  0.00190870  1
  Br  Br43  1  0.72539812  0.51784844  0.24744000  1
  Br  Br44  1  0.19831173  0.47968436  0.20089664  1
  Br  Br45  1  0.00223504  0.69298331  0.49809195  1
  Br  Br46  1  0.25152755  0.50826858  0.74305864  1
  Br  Br47  1  0.81620709  0.48664533  0.83869949  1
