# generated using pymatgen
data_AlH10IrC2(Br3N2)2
_symmetry_space_group_name_H-M   'P 1'
_cell_length_a   8.00788744
_cell_length_b   10.49154672
_cell_length_c   7.99374661
_cell_angle_alpha   90.17112550
_cell_angle_beta   90.00071545
_cell_angle_gamma   89.99746127
_symmetry_Int_Tables_number   1
_chemical_formula_structural   AlH10IrC2(Br3N2)2
_chemical_formula_sum   'Al2 H20 Ir2 C4 Br12 N8'
_cell_volume   671.59262615
_cell_formula_units_Z   2
loop_
 _symmetry_equiv_pos_site_id
 _symmetry_equiv_pos_as_xyz
  1  'x, y, z'
loop_
 _atom_site_type_symbol
 _atom_site_label
 _atom_site_symmetry_multiplicity
 _atom_site_fract_x
 _atom_site_fract_y
 _atom_site_fract_z
 _atom_site_occupancy
  C  C0  1  0.49574071  0.29329103  0.49677379  1
  C  C1  1  0.99578588  0.20670604  0.00322862  1
  C  C2  1  0.50461830  0.79338052  0.50396228  1
  C  C3  1  0.00457666  0.70662928  0.99602020  1
  N  N4  1  0.59930238  0.23685711  0.59890039  1
  N  N5  1  0.39546100  0.23564604  0.39225770  1
  N  N6  1  0.09936969  0.26313844  0.90114042  1
  N  N7  1  0.89550553  0.26435494  0.10775357  1
  N  N8  1  0.60664711  0.73574064  0.60642509  1
  N  N9  1  0.39871290  0.73692897  0.40392232  1
  N  N10  1  0.10660170  0.76426975  0.89358409  1
  N  N11  1  0.89865009  0.76306869  0.09605321  1
  H  H12  1  0.49245791  0.39687017  0.49907181  1
  H  H13  1  0.67032093  0.29177052  0.67720145  1
  H  H14  1  0.61649259  0.14054865  0.60336363  1
  H  H15  1  0.32150481  0.29017255  0.31665227  1
  H  H16  1  0.38307452  0.13904472  0.38361039  1
  H  H17  1  0.99247129  0.10312987  0.00089998  1
  H  H18  1  0.17038100  0.20822473  0.82282780  1
  H  H19  1  0.11658578  0.35944407  0.89670957  1
  H  H20  1  0.82153176  0.20982906  0.18333074  1
  H  H21  1  0.88313993  0.36095504  0.11642521  1
  H  H22  1  0.50858700  0.89693557  0.50167530  1
  H  H23  1  0.68557865  0.79022411  0.67730203  1
  H  H24  1  0.61006134  0.63940710  0.62330299  1
  H  H25  1  0.32338381  0.79185386  0.33023145  1
  H  H26  1  0.38883940  0.64040741  0.39130814  1
  H  H27  1  0.00855190  0.60307281  0.99830331  1
  H  H28  1  0.18555262  0.70979672  0.82270801  1
  H  H29  1  0.11000611  0.86060825  0.87670820  1
  H  H30  1  0.82332157  0.70813978  0.16972603  1
  H  H31  1  0.88875252  0.85959078  0.10867266  1
  Al  Al32  1  0.49207770  0.99999623  0.99953091  1
  Al  Al33  1  0.99216836  0.50001146  0.50051513  1
  Ir  Ir34  1  0.00080464  1.00001166  0.49781710  1
  Ir  Ir35  1  0.50079290  0.49999208  0.00218657  1
  Br  Br36  1  0.50000554  0.25245519  0.99855907  1
  Br  Br37  1  0.19639434  0.98772131  0.24378870  1
  Br  Br38  1  0.74857421  0.00929219  0.30229921  1
  Br  Br39  1  0.99997344  0.24754806  0.50147724  1
  Br  Br40  1  0.25405079  0.01210484  0.69323222  1
  Br  Br41  1  0.80593223  0.99070058  0.74985901  1
  Br  Br42  1  0.50137876  0.74750398  0.00318866  1
  Br  Br43  1  0.69638342  0.51227201  0.25620409  1
  Br  Br44  1  0.24856380  0.49072740  0.19770487  1
  Br  Br45  1  0.00141496  0.75250033  0.49678443  1
  Br  Br46  1  0.30590801  0.50930847  0.75013080  1
  Br  Br47  1  0.75402883  0.48787999  0.80677407  1
