# generated using pymatgen
data_AlSbH10C2(Br3N2)2
_symmetry_space_group_name_H-M   'P 1'
_cell_length_a   7.99470443
_cell_length_b   11.33594599
_cell_length_c   8.61684081
_cell_angle_alpha   91.96432755
_cell_angle_beta   89.99931835
_cell_angle_gamma   89.99843368
_symmetry_Int_Tables_number   1
_chemical_formula_structural   AlSbH10C2(Br3N2)2
_chemical_formula_sum   'Al2 Sb2 H20 C4 Br12 N8'
_cell_volume   780.46416325
_cell_formula_units_Z   2
loop_
 _symmetry_equiv_pos_site_id
 _symmetry_equiv_pos_as_xyz
  1  'x, y, z'
loop_
 _atom_site_type_symbol
 _atom_site_label
 _atom_site_symmetry_multiplicity
 _atom_site_fract_x
 _atom_site_fract_y
 _atom_site_fract_z
 _atom_site_occupancy
  C  C0  1  0.51504846  0.28647979  0.50529162  1
  C  C1  1  0.01500902  0.21352086  0.99472750  1
  C  C2  1  0.51157063  0.79011240  0.51223705  1
  C  C3  1  0.01160564  0.70988893  0.98773391  1
  N  N4  1  0.58643629  0.23278234  0.62041149  1
  N  N5  1  0.38921702  0.24479349  0.42200683  1
  N  N6  1  0.08642455  0.26721740  0.87961594  1
  N  N7  1  0.88918771  0.25522135  0.07801188  1
  N  N8  1  0.60712642  0.74604919  0.61945115  1
  N  N9  1  0.40864058  0.72988895  0.42072507  1
  N  N10  1  0.10714711  0.75398327  0.88054193  1
  N  N11  1  0.90865696  0.77008434  0.07927623  1
  H  H12  1  0.56617764  0.37185465  0.47451909  1
  H  H13  1  0.68433984  0.27331551  0.67626966  1
  H  H14  1  0.54600867  0.15348019  0.65912626  1
  H  H15  1  0.33741897  0.29562508  0.33904459  1
  H  H16  1  0.32996670  0.16753524  0.44545480  1
  H  H17  1  0.06611254  0.12813442  0.02548136  1
  H  H18  1  0.18432114  0.22667134  0.82375610  1
  H  H19  1  0.04602663  0.34653538  0.84091857  1
  H  H20  1  0.83737217  0.20438933  0.16096251  1
  H  H21  1  0.82996299  0.33249439  0.05458516  1
  H  H22  1  0.51960496  0.88489873  0.49618942  1
  H  H23  1  0.68197791  0.80210313  0.68420615  1
  H  H24  1  0.60877146  0.65861789  0.64462291  1
  H  H25  1  0.33370332  0.77427434  0.34677201  1
  H  H26  1  0.38412204  0.64254594  0.43436262  1
  H  H27  1  0.01965602  0.61509917  0.00374839  1
  H  H28  1  0.18201198  0.69794986  0.81576852  1
  H  H29  1  0.10876965  0.84141918  0.85540078  1
  H  H30  1  0.83373032  0.72567553  0.15321293  1
  H  H31  1  0.88412307  0.85743214  0.06568109  1
  Al  Al32  1  0.48224036  0.00328545  0.11808410  1
  Al  Al33  1  0.98223965  0.49670672  0.38191747  1
  Sb  Sb34  1  0.00293730  0.99986846  0.55137973  1
  Sb  Sb35  1  0.50293648  0.50012745  0.94861755  1
  Br  Br36  1  0.48016038  0.18934323  0.01441788  1
  Br  Br37  1  0.21837114  0.98212337  0.24567439  1
  Br  Br38  1  0.70573893  0.02335071  0.30033156  1
  Br  Br39  1  0.98017182  0.31065030  0.48558832  1
  Br  Br40  1  0.28762919  0.01146458  0.71112697  1
  Br  Br41  1  0.80810242  0.99177645  0.80253221  1
  Br  Br42  1  0.50472169  0.81584039  0.00626560  1
  Br  Br43  1  0.71837202  0.51786800  0.25432160  1
  Br  Br44  1  0.20573642  0.47664262  0.19966483  1
  Br  Br45  1  0.00470307  0.68415450  0.49372950  1
  Br  Br46  1  0.30808652  0.50823228  0.69748032  1
  Br  Br47  1  0.78762351  0.48855471  0.78885921  1
