# generated using pymatgen
data_AlInH10C2(Br3N2)2
_symmetry_space_group_name_H-M   'P 1'
_cell_length_a   8.11092890
_cell_length_b   11.12609970
_cell_length_c   8.09712356
_cell_angle_alpha   89.69004584
_cell_angle_beta   90.00001369
_cell_angle_gamma   90.00191540
_symmetry_Int_Tables_number   1
_chemical_formula_structural   AlInH10C2(Br3N2)2
_chemical_formula_sum   'Al2 In2 H20 C4 Br12 N8'
_cell_volume   730.69805855
_cell_formula_units_Z   2
loop_
 _symmetry_equiv_pos_site_id
 _symmetry_equiv_pos_as_xyz
  1  'x, y, z'
loop_
 _atom_site_type_symbol
 _atom_site_label
 _atom_site_symmetry_multiplicity
 _atom_site_fract_x
 _atom_site_fract_y
 _atom_site_fract_z
 _atom_site_occupancy
  C  C0  1  0.49431973  0.29117754  0.49592365  1
  C  C1  1  0.99436345  0.20882064  0.00409617  1
  C  C2  1  0.50552435  0.79121039  0.50330411  1
  C  C3  1  0.00547659  0.70879180  0.99668264  1
  N  N4  1  0.59954150  0.23781619  0.59479017  1
  N  N5  1  0.39334068  0.23732876  0.39411889  1
  N  N6  1  0.09961482  0.26218273  0.90525482  1
  N  N7  1  0.89337900  0.26266100  0.10588787  1
  N  N8  1  0.60488089  0.73731891  0.60751496  1
  N  N9  1  0.40288695  0.73784260  0.40256172  1
  N  N10  1  0.10484534  0.76269884  0.89248511  1
  N  N11  1  0.90280820  0.76215041  0.09740244  1
  H  H12  1  0.49014570  0.38900893  0.49888784  1
  H  H13  1  0.67473238  0.28930660  0.66663088  1
  H  H14  1  0.60818654  0.14673065  0.60823392  1
  H  H15  1  0.31415300  0.28887546  0.32577391  1
  H  H16  1  0.39081164  0.14657168  0.37565487  1
  H  H17  1  0.99017509  0.11098701  0.00111272  1
  H  H18  1  0.17481322  0.21069521  0.83342556  1
  H  H19  1  0.10828612  0.35327096  0.89183643  1
  H  H20  1  0.81416727  0.21111453  0.17421305  1
  H  H21  1  0.89086077  0.35341956  0.12436599  1
  H  H22  1  0.50886207  0.88906103  0.49996710  1
  H  H23  1  0.67666788  0.78891948  0.68272739  1
  H  H24  1  0.61857422  0.64621587  0.61599546  1
  H  H25  1  0.33385341  0.78935873  0.32398222  1
  H  H26  1  0.38426364  0.64710316  0.40039267  1
  H  H27  1  0.00883116  0.61094505  0.00002290  1
  H  H28  1  0.17665292  0.71110635  0.81729030  1
  H  H29  1  0.11852517  0.85380100  0.88400993  1
  H  H30  1  0.83377007  0.71062421  0.17596750  1
  H  H31  1  0.88416495  0.85288546  0.09956099  1
  Al  Al32  1  0.49913741  1.00000802  0.99807693  1
  Al  Al33  1  0.99913792  0.50000136  0.50193232  1
  In  In34  1  0.00073942  0.00005689  0.49748403  1
  In  In35  1  0.50074370  0.49995694  0.00252120  1
  Br  Br36  1  0.49890320  0.22125049  0.99531156  1
  Br  Br37  1  0.24467502  0.99029047  0.18943148  1
  Br  Br38  1  0.69108514  0.00998154  0.25335143  1
  Br  Br39  1  0.99886729  0.27875915  0.50472546  1
  Br  Br40  1  0.30857281  0.00883762  0.74299221  1
  Br  Br41  1  0.75448353  0.99105037  0.80629451  1
  Br  Br42  1  0.50168938  0.77880856  0.00292489  1
  Br  Br43  1  0.74466369  0.50970231  0.31057622  1
  Br  Br44  1  0.19107543  0.49001424  0.24664463  1
  Br  Br45  1  0.00172313  0.72119874  0.49703922  1
  Br  Br46  1  0.25448009  0.50896878  0.69371235  1
  Br  Br47  1  0.80856348  0.49117680  0.75701214  1
