# generated using pymatgen
data_SiSnH12C2(I3N)2
_symmetry_space_group_name_H-M   'P 1'
_cell_length_a   8.41684370
_cell_length_b   12.04734148
_cell_length_c   8.30453670
_cell_angle_alpha   89.10153862
_cell_angle_beta   90.00674043
_cell_angle_gamma   90.01087922
_symmetry_Int_Tables_number   1
_chemical_formula_structural   SiSnH12C2(I3N)2
_chemical_formula_sum   'Si2 Sn2 H24 C4 I12 N4'
_cell_volume   841.98137170
_cell_formula_units_Z   2
loop_
 _symmetry_equiv_pos_site_id
 _symmetry_equiv_pos_as_xyz
  1  'x, y, z'
loop_
 _atom_site_type_symbol
 _atom_site_label
 _atom_site_symmetry_multiplicity
 _atom_site_fract_x
 _atom_site_fract_y
 _atom_site_fract_z
 _atom_site_occupancy
  C  C0  1  0.39768784  0.24990803  0.41577522  1
  C  C1  1  0.89880160  0.25025496  0.08524908  1
  C  C2  1  0.60231232  0.75010080  0.58424350  1
  C  C3  1  0.10120224  0.74974177  0.91476645  1
  N  N4  1  0.53904753  0.24947752  0.52234305  1
  N  N5  1  0.03953366  0.25055890  0.97788139  1
  N  N6  1  0.46095152  0.75052555  0.47767777  1
  N  N7  1  0.96047082  0.74943724  0.02213431  1
  H  H8  1  0.43769069  0.25050106  0.29033744  1
  H  H9  1  0.32798376  0.17504712  0.44074442  1
  H  H10  1  0.32728173  0.32408418  0.43944306  1
  H  H11  1  0.60852337  0.18006001  0.49987175  1
  H  H12  1  0.60840851  0.31948097  0.49916661  1
  H  H13  1  0.50861507  0.24833964  0.64418552  1
  H  H14  1  0.93958498  0.24971350  0.21044596  1
  H  H15  1  0.82812697  0.17609455  0.06212225  1
  H  H16  1  0.82908649  0.32515043  0.06065018  1
  H  H17  1  0.10888574  0.18052522  0.00075267  1
  H  H18  1  0.10923880  0.31994750  -0.00008683  1
  H  H19  1  0.00843080  0.25166681  0.85619930  1
  H  H20  1  0.56230881  0.74951090  0.70968061  1
  H  H21  1  0.67271507  0.67592141  0.56058374  1
  H  H22  1  0.67201671  0.82495997  0.55926688  1
  H  H23  1  0.39147476  0.81994283  0.50014597  1
  H  H24  1  0.39159518  0.68052160  0.50086955  1
  H  H25  1  0.49137913  0.75166119  0.35583417  1
  H  H26  1  0.06041908  0.75028385  0.78956946  1
  H  H27  1  0.17187656  0.82390239  0.93789252  1
  H  H28  1  0.17091937  0.67484677  0.93936088  1
  H  H29  1  0.89111931  0.81947095  0.99926217  1
  H  H30  1  0.89076619  0.68004632  1.00009937  1
  H  H31  1  0.99157513  0.74833013  0.14381511  1
  Si  Si32  1  0.49993407  0.00000443  0.99998530  1
  Si  Si33  1  0.99990869  0.50004241  0.49973174  1
  Sn  Sn34  1  0.99993931  0.00004587  0.50004785  1
  Sn  Sn35  1  0.50006403  0.50002215  0.99980788  1
  I  I36  1  0.47795341  0.24166122  0.94915034  1
  I  I37  1  0.19872985  0.00858945  0.17806234  1
  I  I38  1  0.67860976  0.01366589  0.30521495  1
  I  I39  1  0.97733845  0.25830739  0.55141879  1
  I  I40  1  0.32143132  0.98633501  0.69484324  1
  I  I41  1  0.80133171  0.99140000  0.82193119  1
  I  I42  1  0.52204573  0.75834344  0.05087392  1
  I  I43  1  0.69880363  0.49131148  0.32190704  1
  I  I44  1  0.17866209  0.48642247  0.19496465  1
  I  I45  1  0.02265993  0.74163144  0.44860327  1
  I  I46  1  0.30137082  0.50871332  0.67825534  1
  I  I47  1  0.82121117  0.51356824  0.80521519  1
