# generated using pymatgen
data_AlAgH10C2(Br3N2)2
_symmetry_space_group_name_H-M   'P 1'
_cell_length_a   8.24072697
_cell_length_b   10.22299066
_cell_length_c   8.75634986
_cell_angle_alpha   91.75292050
_cell_angle_beta   90.00336004
_cell_angle_gamma   90.00514613
_symmetry_Int_Tables_number   1
_chemical_formula_structural   AlAgH10C2(Br3N2)2
_chemical_formula_sum   'Al2 Ag2 H20 C4 Br12 N8'
_cell_volume   737.33238429
_cell_formula_units_Z   2
loop_
 _symmetry_equiv_pos_site_id
 _symmetry_equiv_pos_as_xyz
  1  'x, y, z'
loop_
 _atom_site_type_symbol
 _atom_site_label
 _atom_site_symmetry_multiplicity
 _atom_site_fract_x
 _atom_site_fract_y
 _atom_site_fract_z
 _atom_site_occupancy
  C  C0  1  0.51988108  0.29934131  0.51177232  1
  C  C1  1  0.01991807  0.20065941  0.98826191  1
  C  C2  1  0.50767788  0.78109518  0.51493479  1
  C  C3  1  0.00763122  0.71891829  0.98511678  1
  N  N4  1  0.58893962  0.24279898  0.62693721  1
  N  N5  1  0.39975654  0.24933394  0.43007843  1
  N  N6  1  0.08895737  0.25724087  0.87311291  1
  N  N7  1  0.89979603  0.25062772  0.06996445  1
  N  N8  1  0.60059365  0.73351279  0.62070214  1
  N  N9  1  0.40839429  0.71350852  0.42520224  1
  N  N10  1  0.10044457  0.76645580  0.87925297  1
  N  N11  1  0.90824748  0.78652318  0.07471655  1
  H  H12  1  0.56922035  0.39324465  0.47819564  1
  H  H13  1  0.67984186  0.29151476  0.68509133  1
  H  H14  1  0.55089856  0.15441932  0.66584855  1
  H  H15  1  0.34879011  0.30197007  0.34533937  1
  H  H16  1  0.34284993  0.16525991  0.46172175  1
  H  H17  1  0.06926967  0.10675941  0.02181434  1
  H  H18  1  0.17986358  0.20856017  0.81495551  1
  H  H19  1  0.05090633  0.34562155  0.83422259  1
  H  H20  1  0.84883387  0.19795799  0.15467713  1
  H  H21  1  0.84287234  0.33468939  0.03833486  1
  H  H22  1  0.51495778  0.88605116  0.49857622  1
  H  H23  1  0.67195806  0.79823595  0.68366591  1
  H  H24  1  0.60201617  0.63729172  0.64868432  1
  H  H25  1  0.33452642  0.76223066  0.35274988  1
  H  H26  1  0.38195942  0.61788240  0.44326588  1
  H  H27  1  0.01510732  0.61400513  0.00171335  1
  H  H28  1  0.17187928  0.70173928  0.81637615  1
  H  H29  1  0.10167600  0.86263824  0.85108988  1
  H  H30  1  0.83447143  0.73783256  0.14727375  1
  H  H31  1  0.88161778  0.88207027  0.05638301  1
  Al  Al32  1  0.48120681  0.00021749  0.13339700  1
  Al  Al33  1  0.98126167  0.49976823  0.36662059  1
  Ag  Ag34  1  0.00603807  0.01285622  0.57663374  1
  Ag  Ag35  1  0.50614910  0.48724241  0.92334663  1
  Br  Br36  1  0.48043448  0.20020277  0.01576839  1
  Br  Br37  1  0.22575246  0.98117974  0.25297422  1
  Br  Br38  1  0.70505117  0.01599282  0.30050269  1
  Br  Br39  1  0.98044187  0.29979996  0.48428883  1
  Br  Br40  1  0.29608799  0.01579676  0.68912365  1
  Br  Br41  1  0.78386968  0.99105897  0.77771745  1
  Br  Br42  1  0.49944812  0.80169156  0.00270664  1
  Br  Br43  1  0.72579129  0.51878201  0.24702750  1
  Br  Br44  1  0.20509578  0.48394715  0.19953332  1
  Br  Br45  1  0.99954015  0.69833010  0.49722948  1
  Br  Br46  1  0.28390665  0.50896516  0.72232500  1
  Br  Br47  1  0.79619000  0.48424103  0.81087751  1
