# generated using pymatgen
data_AlH10RhC2(Br3N2)2
_symmetry_space_group_name_H-M   'P 1'
_cell_length_a   7.54971037
_cell_length_b   11.14345117
_cell_length_c   8.30880907
_cell_angle_alpha   90.38590212
_cell_angle_beta   90.00061305
_cell_angle_gamma   90.00267962
_symmetry_Int_Tables_number   1
_chemical_formula_structural   AlH10RhC2(Br3N2)2
_chemical_formula_sum   'Al2 H20 Rh2 C4 Br12 N8'
_cell_volume   699.00282983
_cell_formula_units_Z   2
loop_
 _symmetry_equiv_pos_site_id
 _symmetry_equiv_pos_as_xyz
  1  'x, y, z'
loop_
 _atom_site_type_symbol
 _atom_site_label
 _atom_site_symmetry_multiplicity
 _atom_site_fract_x
 _atom_site_fract_y
 _atom_site_fract_z
 _atom_site_occupancy
  C  C0  1  0.51119983  0.29153766  0.52232505  1
  C  C1  1  0.01120633  0.20846458  0.97769434  1
  C  C2  1  0.51501023  0.78313255  0.52433794  1
  C  C3  1  0.01500003  0.71688193  0.97569146  1
  N  N4  1  0.58435609  0.24008972  0.64675229  1
  N  N5  1  0.38904521  0.24216224  0.43055408  1
  N  N6  1  0.08433664  0.25994091  0.85327784  1
  N  N7  1  0.88903596  0.25780612  0.06947827  1
  N  N8  1  0.61177570  0.74490260  0.64378681  1
  N  N9  1  0.41589577  0.71536797  0.43063321  1
  N  N10  1  0.11170574  0.75505967  0.85616658  1
  N  N11  1  0.91583287  0.78468056  0.06929545  1
  H  H12  1  0.55771624  0.38106857  0.49108065  1
  H  H13  1  0.67322055  0.28915535  0.71283453  1
  H  H14  1  0.55655665  0.15417286  0.68083473  1
  H  H15  1  0.33600007  0.29089228  0.33892206  1
  H  H16  1  0.32611574  0.16451577  0.46342061  1
  H  H17  1  0.05775483  0.11894166  0.00892387  1
  H  H18  1  0.17322214  0.21090622  0.78718819  1
  H  H19  1  0.05649967  0.34585377  0.81920830  1
  H  H20  1  0.83601394  0.20905577  0.16110246  1
  H  H21  1  0.82608746  0.33544610  0.03663513  1
  H  H22  1  0.51747788  0.87922132  0.50070402  1
  H  H23  1  0.68800936  0.80757303  0.70345230  1
  H  H24  1  0.61968738  0.65658993  0.67738921  1
  H  H25  1  0.33679740  0.75466593  0.34693383  1
  H  H26  1  0.39632256  0.62667275  0.45401670  1
  H  H27  1  0.01758158  0.62081883  0.99948595  1
  H  H28  1  0.18797496  0.69237623  0.79657037  1
  H  H29  1  0.11953057  0.84334950  0.82244614  1
  H  H30  1  0.83678959  0.74541821  0.15307025  1
  H  H31  1  0.89613748  0.87333541  0.04572920  1
  Al  Al32  1  0.48207057  0.00336174  0.15748282  1
  Al  Al33  1  0.98212095  0.49663213  0.34254494  1
  Rh  Rh34  1  0.00591064  0.99838474  0.51602424  1
  Rh  Rh35  1  0.50594854  0.50160520  0.98400597  1
  Br  Br36  1  0.47206052  0.18411993  0.02715880  1
  Br  Br37  1  0.19010243  0.97130206  0.26888531  1
  Br  Br38  1  0.73186468  0.03667008  0.33253826  1
  Br  Br39  1  0.97208113  0.31587476  0.47286610  1
  Br  Br40  1  0.26694475  0.01071652  0.68802422  1
  Br  Br41  1  0.81598056  0.99446551  0.75645009  1
  Br  Br42  1  0.49994574  0.82119263  0.02799230  1
  Br  Br43  1  0.69015466  0.52868545  0.23113848  1
  Br  Br44  1  0.23191039  0.46331417  0.16749712  1
  Br  Br45  1  1.00000549  0.67882586  0.47197599  1
  Br  Br46  1  0.31603263  0.50554709  0.74357017  1
  Br  Br47  1  0.76698922  0.48930910  0.81200815  1
