# generated using pymatgen
data_YAlH10C2(Br3N2)2
_symmetry_space_group_name_H-M   'P 1'
_cell_length_a   8.16508002
_cell_length_b   11.34046225
_cell_length_c   8.27454921
_cell_angle_alpha   91.43206727
_cell_angle_beta   90.00018314
_cell_angle_gamma   90.00211307
_symmetry_Int_Tables_number   1
_chemical_formula_structural   YAlH10C2(Br3N2)2
_chemical_formula_sum   'Y2 Al2 H20 C4 Br12 N8'
_cell_volume   765.94904069
_cell_formula_units_Z   2
loop_
 _symmetry_equiv_pos_site_id
 _symmetry_equiv_pos_as_xyz
  1  'x, y, z'
loop_
 _atom_site_type_symbol
 _atom_site_label
 _atom_site_symmetry_multiplicity
 _atom_site_fract_x
 _atom_site_fract_y
 _atom_site_fract_z
 _atom_site_occupancy
  C  C0  1  0.51542951  0.28585071  0.49791782  1
  C  C1  1  0.01546929  0.21417374  0.00209864  1
  C  C2  1  0.49820835  0.79068848  0.50419086  1
  C  C3  1  0.99812687  0.70929821  0.99588683  1
  N  N4  1  0.59038756  0.22866576  0.61210310  1
  N  N5  1  0.39904190  0.24234933  0.40504905  1
  N  N6  1  0.09038239  0.27140609  0.88792807  1
  N  N7  1  0.89903817  0.25761090  0.09496296  1
  N  N8  1  0.59903520  0.74712769  0.61053487  1
  N  N9  1  0.40300280  0.72882729  0.40678423  1
  N  N10  1  0.09889544  0.75283431  0.88945046  1
  N  N11  1  0.90282188  0.77117077  0.09316078  1
  H  H12  1  0.55458130  0.37622868  0.47712315  1
  H  H13  1  0.67796360  0.27123642  0.67919465  1
  H  H14  1  0.56043685  0.14468117  0.64213305  1
  H  H15  1  0.34677766  0.29432198  0.32024648  1
  H  H16  1  0.35441412  0.15869221  0.41511646  1
  H  H17  1  0.05470126  0.12381402  0.02288669  1
  H  H18  1  0.17801035  0.22888975  0.82084437  1
  H  H19  1  0.06035504  0.35537508  0.85790435  1
  H  H20  1  0.84680770  0.20560913  0.17975399  1
  H  H21  1  0.85434549  0.34124980  0.08490702  1
  H  H22  1  0.49301914  0.88634188  0.49560808  1
  H  H23  1  0.66854723  0.80369455  0.68006242  1
  H  H24  1  0.61145479  0.65893074  0.62922041  1
  H  H25  1  0.32849159  0.77189911  0.32891218  1
  H  H26  1  0.39956374  0.63889360  0.40388035  1
  H  H27  1  0.99311212  0.61365290  0.00467077  1
  H  H28  1  0.16847999  0.69626630  0.82002083  1
  H  H29  1  0.11114842  0.84102210  0.87059547  1
  H  H30  1  0.82836601  0.72811966  0.17110280  1
  H  H31  1  0.89920157  0.86110784  0.09585350  1
  Al  Al32  1  0.50001358  0.99840415  0.01695115  1
  Al  Al33  1  1.00011010  0.50159776  0.48305251  1
  Y  Y34  1  0.99597344  0.99984631  0.50885900  1
  Y  Y35  1  0.49598848  0.50016031  0.99111919  1
  Br  Br36  1  0.49855548  0.25739629  0.00325223  1
  Br  Br37  1  0.20822095  0.98307887  0.23939983  1
  Br  Br38  1  0.72338684  0.01136406  0.30337729  1
  Br  Br39  1  0.99855653  0.24260999  0.49675536  1
  Br  Br40  1  0.27491098  0.01551307  0.70977493  1
  Br  Br41  1  0.80330937  0.99022046  0.78871982  1
  Br  Br42  1  0.49567145  0.74318606  0.00312113  1
  Br  Br43  1  0.70824064  0.51692326  0.26058310  1
  Br  Br44  1  0.22345214  0.48862988  0.19667466  1
  Br  Br45  1  0.99577020  0.75681759  0.49684129  1
  Br  Br46  1  0.30330281  0.50977577  0.71128468  1
  Br  Br47  1  0.77493902  0.48450896  0.79023387  1
