# generated using pymatgen
data_AlAsH10C2(Br3N2)2
_symmetry_space_group_name_H-M   'P 1'
_cell_length_a   7.86875642
_cell_length_b   11.19577277
_cell_length_c   8.62074863
_cell_angle_alpha   90.77565850
_cell_angle_beta   90.00094128
_cell_angle_gamma   90.00154054
_symmetry_Int_Tables_number   1
_chemical_formula_structural   AlAsH10C2(Br3N2)2
_chemical_formula_sum   'Al2 As2 H20 C4 Br12 N8'
_cell_volume   759.39085180
_cell_formula_units_Z   2
loop_
 _symmetry_equiv_pos_site_id
 _symmetry_equiv_pos_as_xyz
  1  'x, y, z'
loop_
 _atom_site_type_symbol
 _atom_site_label
 _atom_site_symmetry_multiplicity
 _atom_site_fract_x
 _atom_site_fract_y
 _atom_site_fract_z
 _atom_site_occupancy
  C  C0  1  0.51508865  0.28727531  0.50288298  1
  C  C1  1  0.01513147  0.21271222  0.99710559  1
  C  C2  1  0.50130468  0.78983056  0.50802882  1
  C  C3  1  0.00127923  0.71018071  0.99197671  1
  N  N4  1  0.58664175  0.23046196  0.61766911  1
  N  N5  1  0.39560728  0.24422144  0.41165975  1
  N  N6  1  0.08667283  0.26961671  0.88239045  1
  N  N7  1  0.89566109  0.25569172  0.08839523  1
  N  N8  1  0.60052593  0.74716888  0.61590060  1
  N  N9  1  0.41277481  0.72679833  0.40690336  1
  N  N10  1  0.10044826  0.75286210  0.88407673  1
  N  N11  1  0.91266579  0.77319938  0.09304839  1
  H  H12  1  0.56077478  0.37727933  0.47971122  1
  H  H13  1  0.67901349  0.27323768  0.68028933  1
  H  H14  1  0.55350794  0.14606900  0.64911428  1
  H  H15  1  0.34406828  0.29749655  0.32867402  1
  H  H16  1  0.34061073  0.16256129  0.42735538  1
  H  H17  1  0.06081492  0.12268732  0.02015091  1
  H  H18  1  0.17904879  0.22689703  0.81972122  1
  H  H19  1  0.05353864  0.35403357  0.85105595  1
  H  H20  1  0.84412970  0.20235008  0.17131427  1
  H  H21  1  0.84067993  0.33736986  0.07282698  1
  H  H22  1  0.49162304  0.88668266  0.50061224  1
  H  H23  1  0.66686863  0.80594829  0.68516659  1
  H  H24  1  0.61730568  0.65800805  0.63479794  1
  H  H25  1  0.33334417  0.77030001  0.33318149  1
  H  H26  1  0.40699470  0.63591746  0.40695620  1
  H  H27  1  0.99173083  0.61332602  -0.00052704  1
  H  H28  1  0.16685881  0.69409783  0.81484926  1
  H  H29  1  0.11709838  0.84202511  0.86511115  1
  H  H30  1  0.83327732  0.72967909  0.16679003  1
  H  H31  1  0.90675049  0.86407455  0.09290572  1
  Al  Al32  1  0.48595542  0.00161574  0.12050200  1
  Al  Al33  1  0.98601587  0.49836721  0.37951357  1
  As  As34  1  0.00483688  0.99896649  0.56127980  1
  As  As35  1  0.50485495  0.50101530  0.93871519  1
  Br  Br36  1  0.48654164  0.18735383  0.00748422  1
  Br  Br37  1  0.22126180  0.98409201  0.25300469  1
  Br  Br38  1  0.71357214  0.01628360  0.30043360  1
  Br  Br39  1  0.98655091  0.31264417  0.49256291  1
  Br  Br40  1  0.26983781  0.01601507  0.71329039  1
  Br  Br41  1  0.80801932  0.99011851  0.78378005  1
  Br  Br42  1  0.50392010  0.81657510  1.00167961  1
  Br  Br43  1  0.72132727  0.51585803  0.24697517  1
  Br  Br44  1  0.21362061  0.48367628  0.19958176  1
  Br  Br45  1  0.00397015  0.68343089  0.49827671  1
  Br  Br46  1  0.30803724  0.50994940  0.71622842  1
  Br  Br47  1  0.76985622  0.48404127  0.78670183  1
