# generated using pymatgen
data_AlGaH10C2(Br3N2)2
_symmetry_space_group_name_H-M   'P 1'
_cell_length_a   8.06358045
_cell_length_b   11.01710842
_cell_length_c   8.05029572
_cell_angle_alpha   89.68554158
_cell_angle_beta   89.99978998
_cell_angle_gamma   90.00177938
_symmetry_Int_Tables_number   1
_chemical_formula_structural   AlGaH10C2(Br3N2)2
_chemical_formula_sum   'Al2 Ga2 H20 C4 Br12 N8'
_cell_volume   715.15608687
_cell_formula_units_Z   2
loop_
 _symmetry_equiv_pos_site_id
 _symmetry_equiv_pos_as_xyz
  1  'x, y, z'
loop_
 _atom_site_type_symbol
 _atom_site_label
 _atom_site_symmetry_multiplicity
 _atom_site_fract_x
 _atom_site_fract_y
 _atom_site_fract_z
 _atom_site_occupancy
  C  C0  1  0.49454119  0.29132061  0.49593023  1
  C  C1  1  0.99458523  0.20867827  0.00408911  1
  C  C2  1  0.50533712  0.79134998  0.50324235  1
  C  C3  1  0.00529404  0.70865237  0.99674134  1
  N  N4  1  0.60030537  0.23749751  0.59530441  1
  N  N5  1  0.39288719  0.23681268  0.39372994  1
  N  N6  1  0.10037903  0.26250416  0.90473747  1
  N  N7  1  0.89292632  0.26318035  0.10627890  1
  N  N8  1  0.60515184  0.73686938  0.60800858  1
  N  N9  1  0.40224561  0.73748767  0.40187510  1
  N  N10  1  0.10510984  0.76314446  0.89199597  1
  N  N11  1  0.90216572  0.76250324  0.09809079  1
  H  H12  1  0.49038689  0.39001967  0.49862657  1
  H  H13  1  0.67559585  0.28965136  0.66777497  1
  H  H14  1  0.60979411  0.14551659  0.60848891  1
  H  H15  1  0.31372194  0.28892684  0.32457216  1
  H  H16  1  0.38948416  0.14511601  0.37600199  1
  H  H17  1  0.99041805  0.10997822  0.00137279  1
  H  H18  1  0.17567392  0.21035174  0.83227800  1
  H  H19  1  0.10989093  0.35448451  0.89157770  1
  H  H20  1  0.81373754  0.21106422  0.17541607  1
  H  H21  1  0.88953259  0.35487649  0.12402005  1
  H  H22  1  0.50868562  0.89007745  0.49998710  1
  H  H23  1  0.67766463  0.78903941  0.68329184  1
  H  H24  1  0.61833041  0.64485703  0.61729413  1
  H  H25  1  0.33250512  0.78964587  0.32323969  1
  H  H26  1  0.38416282  0.64579809  0.39871905  1
  H  H27  1  0.00865904  0.60992686  0.00000554  1
  H  H28  1  0.17765004  0.71098598  0.81672359  1
  H  H29  1  0.11827689  0.85516083  0.88271020  1
  H  H30  1  0.83242370  0.71033653  0.17671501  1
  H  H31  1  0.88406229  0.85418998  0.10123598  1
  Al  Al32  1  0.49909210  0.00000987  0.99811890  1
  Al  Al33  1  0.99909597  0.50000001  0.50188985  1
  Ga  Ga34  1  0.00086860  0.00013104  0.49787283  1
  Ga  Ga35  1  0.50088244  0.49989135  0.00213469  1
  Br  Br36  1  0.49892807  0.22354057  0.99563003  1
  Br  Br37  1  0.24419231  0.98982407  0.19248940  1
  Br  Br38  1  0.69435208  0.00968545  0.25344931  1
  Br  Br39  1  0.99889342  0.27646624  0.50440911  1
  Br  Br40  1  0.30544286  0.00954922  0.74243303  1
  Br  Br41  1  0.75478108  0.99114467  0.80291466  1
  Br  Br42  1  0.50156870  0.77654898  0.00254888  1
  Br  Br43  1  0.74418149  0.51016650  0.30751726  1
  Br  Br44  1  0.19434348  0.49030808  0.24654754  1
  Br  Br45  1  0.00160349  0.72345716  0.49741291  1
  Br  Br46  1  0.25477485  0.50887263  0.69709145  1
  Br  Br47  1  0.80543337  0.49046276  0.75756936  1
