# generated using pymatgen
data_AlCuH10C2(Br3N2)2
_symmetry_space_group_name_H-M   'P 1'
_cell_length_a   8.19125916
_cell_length_b   10.40942136
_cell_length_c   8.79235059
_cell_angle_alpha   92.02355772
_cell_angle_beta   90.00213631
_cell_angle_gamma   90.00740627
_symmetry_Int_Tables_number   1
_chemical_formula_structural   AlCuH10C2(Br3N2)2
_chemical_formula_sum   'Al2 Cu2 H20 C4 Br12 N8'
_cell_volume   749.22340278
_cell_formula_units_Z   2
loop_
 _symmetry_equiv_pos_site_id
 _symmetry_equiv_pos_as_xyz
  1  'x, y, z'
loop_
 _atom_site_type_symbol
 _atom_site_label
 _atom_site_symmetry_multiplicity
 _atom_site_fract_x
 _atom_site_fract_y
 _atom_site_fract_z
 _atom_site_occupancy
  C  C0  1  0.51827950  0.30121881  0.50483761  1
  C  C1  1  0.01842377  0.19879467  0.99515467  1
  C  C2  1  0.50849950  0.77898203  0.50391102  1
  C  C3  1  0.00838289  0.72104311  0.99618115  1
  N  N4  1  0.58757434  0.24517111  0.61927027  1
  N  N5  1  0.39726424  0.25329355  0.42317338  1
  N  N6  1  0.08763728  0.25486986  0.88071074  1
  N  N7  1  0.89736746  0.24663980  0.07681448  1
  N  N8  1  0.60048232  0.72906292  0.60809429  1
  N  N9  1  0.40624475  0.71598709  0.41356362  1
  N  N10  1  0.10028927  0.77090848  0.89188222  1
  N  N11  1  0.90609506  0.78406697  0.08640988  1
  H  H12  1  0.56765815  0.39394038  0.47313714  1
  H  H13  1  0.68177406  0.29056833  0.67541532  1
  H  H14  1  0.55179140  0.15752471  0.65609334  1
  H  H15  1  0.34755186  0.30545857  0.33842309  1
  H  H16  1  0.34179754  0.16865532  0.44929238  1
  H  H17  1  0.06789993  0.10611667  0.02687792  1
  H  H18  1  0.18187812  0.20954559  0.82457951  1
  H  H19  1  0.05176356  0.34248802  0.84386385  1
  H  H20  1  0.84772562  0.19445631  0.16158140  1
  H  H21  1  0.84182908  0.33123367  0.05068477  1
  H  H22  1  0.51989762  0.88202948  0.48932100  1
  H  H23  1  0.67466865  0.78980007  0.67179610  1
  H  H24  1  0.59646895  0.63443521  0.63532677  1
  H  H25  1  0.33456323  0.76647131  0.34185444  1
  H  H26  1  0.38036156  0.62099552  0.42324585  1
  H  H27  1  0.01991889  0.61802910  0.01096694  1
  H  H28  1  0.17451592  0.71015722  0.82826512  1
  H  H29  1  0.09613722  0.86548341  0.86448188  1
  H  H30  1  0.83447667  0.73362668  0.15823208  1
  H  H31  1  0.88007473  0.87901344  0.07651360  1
  Al  Al32  1  0.48120726  0.00208628  0.12775597  1
  Al  Al33  1  0.98125232  0.49789429  0.37226544  1
  Cu  Cu34  1  0.02204970  0.00850898  0.66302782  1
  Cu  Cu35  1  0.52207722  0.49154977  0.83699788  1
  Br  Br36  1  0.48140531  0.19722918  0.00959524  1
  Br  Br37  1  0.22749697  0.98426510  0.25152277  1
  Br  Br38  1  0.70329287  0.01846330  0.29827574  1
  Br  Br39  1  0.98139914  0.30276235  0.49044805  1
  Br  Br40  1  0.29531790  0.01413080  0.67470501  1
  Br  Br41  1  0.77217734  0.99027586  0.76064817  1
  Br  Br42  1  0.50226589  0.80614281  0.99866115  1
  Br  Br43  1  0.72753765  0.51566476  0.24848030  1
  Br  Br44  1  0.20334087  0.48151708  0.20176672  1
  Br  Br45  1  0.00235827  0.69386747  0.50129475  1
  Br  Br46  1  0.27220297  0.50978261  0.73938292  1
  Br  Br47  1  0.79534447  0.48585494  0.82532101  1
