# generated using pymatgen
data_ScAlH10C2(Br3N2)2
_symmetry_space_group_name_H-M   'P 1'
_cell_length_a   8.15413918
_cell_length_b   11.22284115
_cell_length_c   8.14219809
_cell_angle_alpha   90.22221552
_cell_angle_beta   89.99983858
_cell_angle_gamma   89.99667676
_symmetry_Int_Tables_number   1
_chemical_formula_structural   ScAlH10C2(Br3N2)2
_chemical_formula_sum   'Sc2 Al2 H20 C4 Br12 N8'
_cell_volume   745.10818250
_cell_formula_units_Z   2
loop_
 _symmetry_equiv_pos_site_id
 _symmetry_equiv_pos_as_xyz
  1  'x, y, z'
loop_
 _atom_site_type_symbol
 _atom_site_label
 _atom_site_symmetry_multiplicity
 _atom_site_fract_x
 _atom_site_fract_y
 _atom_site_fract_z
 _atom_site_occupancy
  C  C0  1  0.49397454  0.29069708  0.49651570  1
  C  C1  1  0.99402492  0.20929456  0.00349699  1
  C  C2  1  0.50598332  0.79067338  0.50402507  1
  C  C3  1  0.00592735  0.70933443  0.99595329  1
  N  N4  1  0.59651248  0.23797294  0.59670644  1
  N  N5  1  0.39521099  0.23735400  0.39284512  1
  N  N6  1  0.09659653  0.26201710  0.90334826  1
  N  N7  1  0.89524710  0.26263763  0.10716287  1
  N  N8  1  0.60644169  0.73741107  0.60557641  1
  N  N9  1  0.40132284  0.73788120  0.40557936  1
  N  N10  1  0.10640022  0.76260387  0.89443135  1
  N  N11  1  0.90124053  0.76212242  0.09438145  1
  H  H12  1  0.49021451  0.38767734  0.49997827  1
  H  H13  1  0.66643651  0.28931520  0.67332086  1
  H  H14  1  0.61339481  0.14795294  0.60087799  1
  H  H15  1  0.32219156  0.28864132  0.31962926  1
  H  H16  1  0.38408808  0.14701176  0.38209539  1
  H  H17  1  0.99024646  0.11231542  1.00000268  1
  H  H18  1  0.16653133  0.21067218  0.82673644  1
  H  H19  1  0.11350470  0.35203303  0.89921616  1
  H  H20  1  0.82220424  0.21135306  0.18034921  1
  H  H21  1  0.88413606  0.35298192  0.11793393  1
  H  H22  1  0.51011414  0.88763446  0.50087704  1
  H  H23  1  0.68366365  0.78878750  0.67488778  1
  H  H24  1  0.61108730  0.64732847  0.62208823  1
  H  H25  1  0.32806424  0.78909899  0.33263056  1
  H  H26  1  0.39046490  0.64761473  0.39461020  1
  H  H27  1  0.01006905  0.61237273  0.99908715  1
  H  H28  1  0.18364545  0.71123078  0.82512554  1
  H  H29  1  0.11103942  0.85268556  0.87793401  1
  H  H30  1  0.82796310  0.71089612  0.16730195  1
  H  H31  1  0.89035387  0.85238553  0.10535264  1
  Al  Al32  1  0.49877831  0.99988726  0.99801523  1
  Al  Al33  1  0.99878672  0.50013430  0.50200470  1
  Sc  Sc34  1  0.00084476  0.00001760  0.49839240  1
  Sc  Sc35  1  0.50083920  0.49999452  0.00161187  1
  Br  Br36  1  0.49802244  0.26854328  0.99632354  1
  Br  Br37  1  0.19525548  0.98859872  0.23380986  1
  Br  Br38  1  0.73630782  0.01197187  0.30311616  1
  Br  Br39  1  0.99798245  0.23146343  0.50372313  1
  Br  Br40  1  0.26476810  0.01237390  0.69321663  1
  Br  Br41  1  0.80565289  0.98690607  0.76276523  1
  Br  Br42  1  0.50124839  0.73153383  0.00483040  1
  Br  Br43  1  0.69523892  0.51140855  0.26619515  1
  Br  Br44  1  0.23629609  0.48805069  0.19687755  1
  Br  Br45  1  0.00129470  0.76847776  0.49513817  1
  Br  Br46  1  0.30565143  0.51309853  0.73723793  1
  Br  Br47  1  0.76475575  0.48761396  0.80678920  1
