# generated using pymatgen
data_AlPH10C2(Br3N2)2
_symmetry_space_group_name_H-M   'P 1'
_cell_length_a   7.82823773
_cell_length_b   11.13468748
_cell_length_c   8.66080601
_cell_angle_alpha   90.99744857
_cell_angle_beta   90.00150062
_cell_angle_gamma   90.00314181
_symmetry_Int_Tables_number   1
_chemical_formula_structural   AlPH10C2(Br3N2)2
_chemical_formula_sum   'Al2 P2 H20 C4 Br12 N8'
_cell_volume   754.80459477
_cell_formula_units_Z   2
loop_
 _symmetry_equiv_pos_site_id
 _symmetry_equiv_pos_as_xyz
  1  'x, y, z'
loop_
 _atom_site_type_symbol
 _atom_site_label
 _atom_site_symmetry_multiplicity
 _atom_site_fract_x
 _atom_site_fract_y
 _atom_site_fract_z
 _atom_site_occupancy
  C  C0  1  0.51656110  0.28719763  0.50295269  1
  C  C1  1  0.01658641  0.21282695  0.99707246  1
  C  C2  1  0.49952458  0.79107720  0.50517250  1
  C  C3  1  0.99951548  0.70892224  0.99486964  1
  N  N4  1  0.58607894  0.22986540  0.61797714  1
  N  N5  1  0.39722719  0.24463738  0.41066628  1
  N  N6  1  0.08605101  0.27023178  0.88208833  1
  N  N7  1  0.89719868  0.25529593  0.08936084  1
  N  N8  1  0.59936337  0.74770334  0.61191184  1
  N  N9  1  0.41220558  0.72822440  0.40249891  1
  N  N10  1  0.09926052  0.75225959  0.88803633  1
  N  N11  1  0.91208416  0.77181763  0.09741055  1
  H  H12  1  0.56407395  0.37735265  0.48061413  1
  H  H13  1  0.67870975  0.27248595  0.68132862  1
  H  H14  1  0.55174335  0.14526549  0.64875575  1
  H  H15  1  0.34722214  0.29853206  0.32772207  1
  H  H16  1  0.34087463  0.16271920  0.42481792  1
  H  H17  1  0.06418860  0.12269659  0.01938085  1
  H  H18  1  0.17872936  0.22768772  0.81872832  1
  H  H19  1  0.05160021  0.35480979  0.85132390  1
  H  H20  1  0.84723188  0.20135281  0.17227608  1
  H  H21  1  0.84077151  0.33719112  0.07524741  1
  H  H22  1  0.48808613  0.88845573  0.50008224  1
  H  H23  1  0.66577895  0.80625655  0.68208360  1
  H  H24  1  0.61759775  0.65798574  0.62850317  1
  H  H25  1  0.33152556  0.77243524  0.33044821  1
  H  H26  1  0.40885791  0.63673973  0.39879582  1
  H  H27  1  0.98828092  0.61154275  0.00018479  1
  H  H28  1  0.16577255  0.69368519  0.81797728  1
  H  H29  1  0.11730451  0.84197232  0.87124774  1
  H  H30  1  0.83148585  0.72762515  0.16955289  1
  H  H31  1  0.90852710  0.86330065  0.10088108  1
  Al  Al32  1  0.48642163  0.00200244  0.12101172  1
  Al  Al33  1  0.98651991  0.49795874  0.37900980  1
  P  P34  1  0.00488844  0.99960894  0.57408104  1
  P  P35  1  0.50494335  0.50033360  0.92594115  1
  Br  Br36  1  0.48755903  0.18664651  0.00414985  1
  Br  Br37  1  0.22217584  0.98558771  0.25345765  1
  Br  Br38  1  0.71439563  0.01573696  0.29913527  1
  Br  Br39  1  0.98760504  0.31332599  0.49588919  1
  Br  Br40  1  0.25998414  0.01517373  0.71347104  1
  Br  Br41  1  0.81418316  0.98952755  0.78033412  1
  Br  Br42  1  0.50509178  0.81812197  0.99657127  1
  Br  Br43  1  0.72226082  0.51437362  0.24655648  1
  Br  Br44  1  0.21448388  0.48421011  0.20089136  1
  Br  Br45  1  0.00519248  0.68186384  0.50339291  1
  Br  Br46  1  0.31424459  0.51051570  0.71969813  1
  Br  Br47  1  0.76005000  0.48492368  0.78654439  1
