# generated using pymatgen
data_AlSiH10C2(Br3N2)2
_symmetry_space_group_name_H-M   'P 1'
_cell_length_a   7.90550677
_cell_length_b   11.06531087
_cell_length_c   8.94016880
_cell_angle_alpha   84.07835413
_cell_angle_beta   90.04868137
_cell_angle_gamma   87.20956799
_symmetry_Int_Tables_number   1
_chemical_formula_structural   AlSiH10C2(Br3N2)2
_chemical_formula_sum   'Al2 Si2 H20 C4 Br12 N8'
_cell_volume   776.94910565
_cell_formula_units_Z   2
loop_
 _symmetry_equiv_pos_site_id
 _symmetry_equiv_pos_as_xyz
  1  'x, y, z'
loop_
 _atom_site_type_symbol
 _atom_site_label
 _atom_site_symmetry_multiplicity
 _atom_site_fract_x
 _atom_site_fract_y
 _atom_site_fract_z
 _atom_site_occupancy
  C  C0  1  0.51767157  0.30924586  0.51778962  1
  C  C1  1  0.03496471  0.26273125  0.10041024  1
  C  C2  1  0.50151531  0.77066062  0.51770594  1
  C  C3  1  0.00999120  0.70053853  0.02666413  1
  N  N4  1  0.45004955  0.24027288  0.43117327  1
  N  N5  1  0.55053659  0.33057244  0.11351301  1
  N  N6  1  0.02386123  0.25056081  0.95544891  1
  N  N7  1  0.90658848  0.28388310  0.18809324  1
  N  N8  1  0.54266845  0.69035695  0.63171718  1
  N  N9  1  0.40066568  0.75191150  0.40670875  1
  N  N10  1  0.14196111  0.71043216  0.93871958  1
  N  N11  1  0.94119926  0.78847487  0.09817696  1
  H  H12  1  0.52679889  0.40596357  0.47868686  1
  H  H13  1  0.57021008  0.27985472  0.63015304  1
  H  H14  1  0.44852536  0.15160200  0.47996540  1
  H  H15  1  0.49280147  0.30506748  0.21548289  1
  H  H16  1  0.54355568  0.26186443  0.04545339  1
  H  H17  1  0.16135996  0.25270484  0.15098026  1
  H  H18  1  0.13253649  0.24686144  0.89430894  1
  H  H19  1  0.91409619  0.27487494  0.89695718  1
  H  H20  1  0.93051892  0.28517355  0.30047476  1
  H  H21  1  0.77899505  0.30007364  0.15293699  1
  H  H22  1  0.55790828  0.85908346  0.51443494  1
  H  H23  1  0.62611280  0.71166577  0.71062964  1
  H  H24  1  0.48970188  0.60721296  0.65179696  1
  H  H25  1  0.36690149  0.82254724  0.32775300  1
  H  H26  1  0.34708150  0.67037995  0.39668252  1
  H  H27  1  0.95031560  0.61308130  0.03938645  1
  H  H28  1  0.19226467  0.63441016  0.89369991  1
  H  H29  1  0.20720984  0.78800220  0.92163878  1
  H  H30  1  0.83571564  0.77193950  0.16092481  1
  H  H31  1  0.98811742  0.87312527  0.09328205  1
  Al  Al32  1  0.48831262  0.98888471  0.06130947  1
  Al  Al33  1  0.98109478  0.51401047  0.44926540  1
  Si  Si34  1  0.99416326  0.92178888  0.51210265  1
  Si  Si35  1  0.51056859  0.48085736  0.03243920  1
  Br  Br36  1  0.47100043  0.13706720  0.86196368  1
  Br  Br37  1  0.22725281  0.99314757  0.18634439  1
  Br  Br38  1  0.69335138  0.01866286  0.23666179  1
  Br  Br39  1  0.96810534  0.31793616  0.56673023  1
  Br  Br40  1  0.22635928  0.96620913  0.65208936  1
  Br  Br41  1  0.79129877  0.96360742  0.68876915  1
  Br  Br42  1  0.53013770  0.79672391  0.98843251  1
  Br  Br43  1  0.73560187  0.56813165  0.31319980  1
  Br  Br44  1  0.21245031  0.51320797  0.29027558  1
  Br  Br45  1  0.01674469  0.67303156  0.60332220  1
  Br  Br46  1  0.31510315  0.45621536  0.80864090  1
  Br  Br47  1  0.75607403  0.48545135  0.86680888  1
