# generated using pymatgen
data_SiH10PbC2(Br3N2)2
_symmetry_space_group_name_H-M   'P 1'
_cell_length_a   8.15840468
_cell_length_b   11.20947235
_cell_length_c   8.13807829
_cell_angle_alpha   89.43431842
_cell_angle_beta   89.99984390
_cell_angle_gamma   89.99906730
_symmetry_Int_Tables_number   1
_chemical_formula_structural   SiH10PbC2(Br3N2)2
_chemical_formula_sum   'Si2 H20 Pb2 C4 Br12 N8'
_cell_volume   744.20247486
_cell_formula_units_Z   2
loop_
 _symmetry_equiv_pos_site_id
 _symmetry_equiv_pos_as_xyz
  1  'x, y, z'
loop_
 _atom_site_type_symbol
 _atom_site_label
 _atom_site_symmetry_multiplicity
 _atom_site_fract_x
 _atom_site_fract_y
 _atom_site_fract_z
 _atom_site_occupancy
  C  C0  1  0.49393275  0.29072251  0.49678474  1
  C  C1  1  0.99396658  0.20927572  0.00322733  1
  C  C2  1  0.50504589  0.79070906  0.50332970  1
  C  C3  1  0.00499976  0.70929238  0.99666083  1
  N  N4  1  0.59834240  0.23776412  0.59561233  1
  N  N5  1  0.39468767  0.23720305  0.39472171  1
  N  N6  1  0.09839347  0.26223815  0.90442145  1
  N  N7  1  0.89471899  0.26279187  0.10529374  1
  N  N8  1  0.60455025  0.73735194  0.60663086  1
  N  N9  1  0.40239327  0.73750089  0.40420417  1
  N  N10  1  0.10450826  0.76265812  0.89337384  1
  N  N11  1  0.90232144  0.76249047  0.09576873  1
  H  H12  1  0.48865540  0.38782153  0.49998115  1
  H  H13  1  0.67216398  0.28885380  0.66782403  1
  H  H14  1  0.60948579  0.14733088  0.60696453  1
  H  H15  1  0.31666148  0.28837357  0.32545380  1
  H  H16  1  0.39266493  0.14716618  0.37736017  1
  H  H17  1  0.98867693  0.11217859  0.00000789  1
  H  H18  1  0.17222751  0.21115036  0.83221843  1
  H  H19  1  0.10955348  0.35267112  0.89309465  1
  H  H20  1  0.81667044  0.21162028  0.17453315  1
  H  H21  1  0.89269618  0.35282759  0.12266214  1
  H  H22  1  0.50844721  0.88788593  0.49933240  1
  H  H23  1  0.67704325  0.78873118  0.68008584  1
  H  H24  1  0.61576697  0.64687445  0.61753879  1
  H  H25  1  0.33315662  0.78839102  0.32607291  1
  H  H26  1  0.38474925  0.64736520  0.40151174  1
  H  H27  1  0.00842141  0.61211524  0.00065682  1
  H  H28  1  0.17701381  0.71128686  0.81991891  1
  H  H29  1  0.11569758  0.85313678  0.88246595  1
  H  H30  1  0.83309738  0.71159417  0.17390204  1
  H  H31  1  0.88466324  0.85262567  0.09846619  1
  Si  Si32  1  0.48568597  0.99875335  -0.00005216  1
  Si  Si33  1  0.98573758  0.50118350  0.50000270  1
  Pb  Pb34  1  0.99346953  0.00088496  0.50043553  1
  Pb  Pb35  1  0.49350216  0.49907729  0.99953785  1
  Br  Br36  1  0.49840209  0.23739359  0.99699354  1
  Br  Br37  1  0.24047323  0.98812497  0.19988975  1
  Br  Br38  1  0.71371800  0.01171510  0.26835063  1
  Br  Br39  1  0.99837241  0.26267990  0.50304414  1
  Br  Br40  1  0.29229127  0.01223016  0.73453697  1
  Br  Br41  1  0.77583864  0.98738515  0.77979385  1
  Br  Br42  1  0.50246313  0.76483857  0.00310933  1
  Br  Br43  1  0.74046664  0.51187861  0.30010335  1
  Br  Br44  1  0.21366345  0.48829176  0.23170138  1
  Br  Br45  1  0.00251076  0.73523049  0.49685044  1
  Br  Br46  1  0.27581296  0.51262199  0.72021373  1
  Br  Br47  1  0.79223797  0.48777491  0.76551278  1
