# generated using pymatgen
data_CdSiH12C2(I3N)2
_symmetry_space_group_name_H-M   'P 1'
_cell_length_a   8.25882525
_cell_length_b   11.89264293
_cell_length_c   8.20801757
_cell_angle_alpha   89.41571733
_cell_angle_beta   90.01393739
_cell_angle_gamma   90.00989616
_symmetry_Int_Tables_number   1
_chemical_formula_structural   CdSiH12C2(I3N)2
_chemical_formula_sum   'Cd2 Si2 H24 C4 I12 N4'
_cell_volume   806.14345542
_cell_formula_units_Z   2
loop_
 _symmetry_equiv_pos_site_id
 _symmetry_equiv_pos_as_xyz
  1  'x, y, z'
loop_
 _atom_site_type_symbol
 _atom_site_label
 _atom_site_symmetry_multiplicity
 _atom_site_fract_x
 _atom_site_fract_y
 _atom_site_fract_z
 _atom_site_occupancy
  C  C0  1  0.39613408  0.25007638  0.41424429  1
  C  C1  1  0.89730619  0.25009010  0.08679707  1
  C  C2  1  0.60386329  0.74992774  0.58577377  1
  C  C3  1  0.10270125  0.74991031  0.91321495  1
  N  N4  1  0.53930433  0.24970268  0.52275318  1
  N  N5  1  0.03977903  0.25034823  0.97744939  1
  N  N6  1  0.46069221  0.75030066  0.47726641  1
  N  N7  1  0.96022881  0.74964968  0.02256312  1
  H  H8  1  0.43752523  0.25069220  0.28758422  1
  H  H9  1  0.32467703  0.17450498  0.43878659  1
  H  H10  1  0.32452637  0.32527243  0.43817940  1
  H  H11  1  0.61017173  0.17925052  0.50063987  1
  H  H12  1  0.61023534  0.32036598  0.49965730  1
  H  H13  1  0.50769264  0.24921658  0.64598294  1
  H  H14  1  0.93951834  0.24955330  0.21318532  1
  H  H15  1  0.82541702  0.17491744  0.06342842  1
  H  H16  1  0.82580785  0.32570507  0.06260086  1
  H  H17  1  0.11072529  0.17962472  0.00025426  1
  H  H18  1  0.11089965  0.32075214  0.99913342  1
  H  H19  1  0.00745951  0.25078708  0.85442248  1
  H  H20  1  0.56247384  0.74931526  0.71243414  1
  H  H21  1  0.67546980  0.67473120  0.56184185  1
  H  H22  1  0.67532128  0.82549887  0.56122707  1
  H  H23  1  0.38982541  0.82075206  0.49937825  1
  H  H24  1  0.38976161  0.67963611  0.50036785  1
  H  H25  1  0.49230165  0.75078417  0.35403575  1
  H  H26  1  0.06048838  0.75044905  0.78682695  1
  H  H27  1  0.17459066  0.82508255  0.93658633  1
  H  H28  1  0.17419998  0.67429503  0.93740666  1
  H  H29  1  0.88927975  0.82037191  0.99975978  1
  H  H30  1  0.88911012  0.67924466  0.00087757  1
  H  H31  1  0.99254855  0.74921067  0.14558994  1
  Si  Si32  1  0.49998692  0.00002253  0.00001151  1
  Si  Si33  1  0.99995767  0.50000794  0.49994791  1
  Cd  Cd34  1  0.99999517  0.00001282  0.50002053  1
  Cd  Cd35  1  0.50000067  0.50003286  0.99994640  1
  I  I36  1  0.47729188  0.24547366  0.95071414  1
  I  I37  1  0.19321850  0.00731888  0.18537963  1
  I  I38  1  0.68581810  0.01004388  0.30923617  1
  I  I39  1  0.97657806  0.25449773  0.54989962  1
  I  I40  1  0.31418166  0.98995879  0.69077298  1
  I  I41  1  0.80678936  0.99267791  0.81463839  1
  I  I42  1  0.52271608  0.75451468  0.04931838  1
  I  I43  1  0.69316777  0.49259764  0.31453809  1
  I  I44  1  0.18588826  0.49004996  0.19083732  1
  I  I45  1  0.02341710  0.74550281  0.45011065  1
  I  I46  1  0.30685515  0.50740122  0.68548687  1
  I  I47  1  0.81412516  0.50994520  0.80918861  1
