# generated using pymatgen
data_SiHgH10C2(Br3N2)2
_symmetry_space_group_name_H-M   'P 1'
_cell_length_a   8.15346145
_cell_length_b   11.19270584
_cell_length_c   8.13993744
_cell_angle_alpha   89.44291170
_cell_angle_beta   90.00005164
_cell_angle_gamma   90.00199913
_symmetry_Int_Tables_number   1
_chemical_formula_structural   SiHgH10C2(Br3N2)2
_chemical_formula_sum   'Si2 Hg2 H20 C4 Br12 N8'
_cell_volume   742.80984409
_cell_formula_units_Z   2
loop_
 _symmetry_equiv_pos_site_id
 _symmetry_equiv_pos_as_xyz
  1  'x, y, z'
loop_
 _atom_site_type_symbol
 _atom_site_label
 _atom_site_symmetry_multiplicity
 _atom_site_fract_x
 _atom_site_fract_y
 _atom_site_fract_z
 _atom_site_occupancy
  C  C0  1  0.49520536  0.29152560  0.49581556  1
  C  C1  1  0.99523118  0.20847933  0.00420602  1
  C  C2  1  0.50445321  0.79155096  0.50303234  1
  C  C3  1  0.00439803  0.70844907  0.99697474  1
  N  N4  1  0.60087612  0.23887418  0.59382201  1
  N  N5  1  0.39388995  0.23768986  0.39584267  1
  N  N6  1  0.10093270  0.26113512  0.90620587  1
  N  N7  1  0.89392899  0.26230579  0.10416522  1
  N  N8  1  0.60258037  0.73775751  0.60745782  1
  N  N9  1  0.40338749  0.73880901  0.40155999  1
  N  N10  1  0.10254418  0.76225990  0.89252914  1
  N  N11  1  0.90333249  0.76117618  0.09840854  1
  H  H12  1  0.49088195  0.38878184  0.49765075  1
  H  H13  1  0.67569605  0.29057894  0.66425328  1
  H  H14  1  0.61157581  0.14835503  0.60746089  1
  H  H15  1  0.31482738  0.28884035  0.32793078  1
  H  H16  1  0.38953905  0.14731193  0.37938079  1
  H  H17  1  0.99090305  0.11122151  0.00234314  1
  H  H18  1  0.17574833  0.20943257  0.83578024  1
  H  H19  1  0.11164684  0.35165362  0.89259185  1
  H  H20  1  0.81484576  0.21115551  0.17206789  1
  H  H21  1  0.88958660  0.35268637  0.12064899  1
  H  H22  1  0.50726656  0.88884544  0.50013206  1
  H  H23  1  0.67333674  0.78896993  0.68262754  1
  H  H24  1  0.61555435  0.64712121  0.61763824  1
  H  H25  1  0.33520512  0.79054058  0.32337544  1
  H  H26  1  0.38620140  0.64849874  0.39684968  1
  H  H27  1  0.00724764  0.61115711  0.99987165  1
  H  H28  1  0.17330469  0.71105486  0.81738970  1
  H  H29  1  0.11548605  0.85288705  0.88235916  1
  H  H30  1  0.83513821  0.70943878  0.17660570  1
  H  H31  1  0.88611231  0.85149456  0.10312194  1
  Si  Si32  1  0.49948722  1.00001493  0.99779359  1
  Si  Si33  1  0.99949345  0.49998829  0.50221053  1
  Hg  Hg34  1  0.99955674  0.00001170  0.49738055  1
  Hg  Hg35  1  0.49956527  0.49999251  0.00261900  1
  Br  Br36  1  0.49972334  0.21299385  0.99621954  1
  Br  Br37  1  0.26050601  0.99316592  0.18612564  1
  Br  Br38  1  0.68832227  0.00535748  0.23728380  1
  Br  Br39  1  0.99970291  0.28700964  0.50380919  1
  Br  Br40  1  0.31211174  0.00701253  0.75790636  1
  Br  Br41  1  0.73929146  0.99459580  0.80937392  1
  Br  Br42  1  0.50056307  0.78705335  0.00091662  1
  Br  Br43  1  0.76050704  0.50682550  0.31387665  1
  Br  Br44  1  0.18832365  0.49463277  0.26271324  1
  Br  Br45  1  0.00059603  0.71294937  0.49905412  1
  Br  Br46  1  0.23929318  0.50541851  0.69062978  1
  Br  Br47  1  0.81211201  0.49300239  0.74209259  1
