# generated using pymatgen
data_SiH10AuC2(Br3N2)2
_symmetry_space_group_name_H-M   'P 1'
_cell_length_a   7.74138983
_cell_length_b   10.68054256
_cell_length_c   8.58942159
_cell_angle_alpha   92.77736336
_cell_angle_beta   86.34588015
_cell_angle_gamma   89.49538657
_symmetry_Int_Tables_number   1
_chemical_formula_structural   SiH10AuC2(Br3N2)2
_chemical_formula_sum   'Si2 H20 Au2 C4 Br12 N8'
_cell_volume   707.86587399
_cell_formula_units_Z   2
loop_
 _symmetry_equiv_pos_site_id
 _symmetry_equiv_pos_as_xyz
  1  'x, y, z'
loop_
 _atom_site_type_symbol
 _atom_site_label
 _atom_site_symmetry_multiplicity
 _atom_site_fract_x
 _atom_site_fract_y
 _atom_site_fract_z
 _atom_site_occupancy
  C  C0  1  0.51150969  0.28540003  0.51284750  1
  C  C1  1  0.01647157  0.21791845  0.98790551  1
  C  C2  1  0.51372881  0.79261375  0.50983068  1
  C  C3  1  0.01430093  0.70221349  0.98046779  1
  N  N4  1  0.56591979  0.22629337  0.63077935  1
  N  N5  1  0.40306464  0.23996738  0.41381677  1
  N  N6  1  0.07668903  0.26583236  0.85805416  1
  N  N7  1  0.90565477  0.27274713  0.09170952  1
  N  N8  1  0.58295644  0.73648328  0.62337236  1
  N  N9  1  0.42137728  0.73811973  0.40388249  1
  N  N10  1  0.09410179  0.76564578  0.87166044  1
  N  N11  1  0.92365078  0.75058652  0.10305091  1
  H  H12  1  0.56256585  0.37860907  0.49327361  1
  H  H13  1  0.65148019  0.27047200  0.69983141  1
  H  H14  1  0.51771027  0.14119859  0.66160907  1
  H  H15  1  0.36035347  0.29505677  0.33008315  1
  H  H16  1  0.34668054  0.15444393  0.42360588  1
  H  H17  1  0.06440023  0.12481202  0.01178932  1
  H  H18  1  0.15754211  0.21070044  0.78395762  1
  H  H19  1  0.04113802  0.35206350  0.82413354  1
  H  H20  1  0.87892834  0.23283147  0.19624261  1
  H  H21  1  0.85580244  0.36055356  0.08114967  1
  H  H22  1  0.53628433  0.89252105  0.50172674  1
  H  H23  1  0.65250441  0.78832464  0.69975677  1
  H  H24  1  0.56644027  0.64373085  0.64333358  1
  H  H25  1  0.36740757  0.79070950  0.32301812  1
  H  H26  1  0.39513748  0.64467141  0.40194793  1
  H  H27  1  0.02503620  0.60042037  0.96771415  1
  H  H28  1  0.16361488  0.71648039  0.78309820  1
  H  H29  1  0.09604369  0.86131365  0.87077591  1
  H  H30  1  0.85948304  0.69193652  0.17767518  1
  H  H31  1  0.90482380  0.84476911  0.12367141  1
  Si  Si32  1  0.53223017  0.99286827  0.05038730  1
  Si  Si33  1  0.01725023  0.52957050  0.45993516  1
  Au  Au34  1  0.02716652  0.01309124  0.51555017  1
  Au  Au35  1  0.48910226  0.49311668  0.00616265  1
  Br  Br36  1  0.47850061  0.20415423  0.01422823  1
  Br  Br37  1  0.25072220  0.98561668  0.20088720  1
  Br  Br38  1  0.70694251  0.00865575  0.25742847  1
  Br  Br39  1  0.97054362  0.24234182  0.47413884  1
  Br  Br40  1  0.28155641  0.00469550  0.71929952  1
  Br  Br41  1  0.75727308  0.99028191  0.84015929  1
  Br  Br42  1  0.50253277  0.77676619  0.00496958  1
  Br  Br43  1  0.73514503  0.52128852  0.30380743  1
  Br  Br44  1  0.23225376  0.48637113  0.20149991  1
  Br  Br45  1  0.99520801  0.76327032  0.48781661  1
  Br  Br46  1  0.25096571  0.51492602  0.66850607  1
  Br  Br47  1  0.73982384  0.48360812  0.80955698  1
