# generated using pymatgen
data_BaSiH10C2(Br3N2)2
_symmetry_space_group_name_H-M   'P 1'
_cell_length_a   8.16069096
_cell_length_b   11.52409279
_cell_length_c   8.40513438
_cell_angle_alpha   89.84286089
_cell_angle_beta   89.99859538
_cell_angle_gamma   89.99606363
_symmetry_Int_Tables_number   1
_chemical_formula_structural   BaSiH10C2(Br3N2)2
_chemical_formula_sum   'Ba2 Si2 H20 C4 Br12 N8'
_cell_volume   790.45418781
_cell_formula_units_Z   2
loop_
 _symmetry_equiv_pos_site_id
 _symmetry_equiv_pos_as_xyz
  1  'x, y, z'
loop_
 _atom_site_type_symbol
 _atom_site_label
 _atom_site_symmetry_multiplicity
 _atom_site_fract_x
 _atom_site_fract_y
 _atom_site_fract_z
 _atom_site_occupancy
  C  C0  1  0.49075959  0.29267032  0.50699117  1
  C  C1  1  0.99063367  0.20740246  0.99294746  1
  C  C2  1  0.50573663  0.79446917  0.48629632  1
  C  C3  1  0.00561162  0.70546272  0.01371415  1
  N  N4  1  0.60605471  0.24393001  0.59270210  1
  N  N5  1  0.41636949  0.24371130  0.38585062  1
  N  N6  1  0.10598771  0.25613761  0.90730135  1
  N  N7  1  0.91629868  0.25631932  0.11415167  1
  N  N8  1  0.57301512  0.74681511  0.61174274  1
  N  N9  1  0.38924140  0.74703394  0.39978704  1
  N  N10  1  0.07300825  0.75316308  0.88836581  1
  N  N11  1  0.88913134  0.75291500  0.10024850  1
  H  H12  1  0.45161455  0.37997552  0.54073669  1
  H  H13  1  0.66159582  0.29009409  0.68087098  1
  H  H14  1  0.64693103  0.16164958  0.57260696  1
  H  H15  1  0.32841153  0.29016339  0.32664991  1
  H  H16  1  0.45369886  0.16595558  0.33985715  1
  H  H17  1  0.95139602  0.12014822  0.95907250  1
  H  H18  1  0.16145002  0.21002236  0.81903122  1
  H  H19  1  0.14696677  0.33836782  0.92753720  1
  H  H20  1  0.82832176  0.20986555  0.17331993  1
  H  H21  1  0.95369984  0.33402005  0.16025013  1
  H  H22  1  0.55076416  0.87968190  0.44867833  1
  H  H23  1  0.65687224  0.79352213  0.67580703  1
  H  H24  1  0.53477711  0.66809947  0.65436641  1
  H  H25  1  0.35136417  0.78806878  0.29844370  1
  H  H26  1  0.33559594  0.66972066  0.42871538  1
  H  H27  1  0.05052443  0.62019425  0.05123490  1
  H  H28  1  0.15685626  0.70644854  0.82428687  1
  H  H29  1  0.03488759  0.83193423  0.84583016  1
  H  H30  1  0.85112154  0.71180175  0.20148463  1
  H  H31  1  0.83557071  0.83027719  0.07140199  1
  Si  Si32  1  0.48922360  0.00370544  0.98033424  1
  Si  Si33  1  0.98933263  0.49631906  0.51964606  1
  Ba  Ba34  1  0.02233582  0.99793023  0.47587311  1
  Ba  Ba35  1  0.52236558  0.50204734  0.02411017  1
  Br  Br36  1  0.50701891  0.23441940  0.98284510  1
  Br  Br37  1  0.23064396  0.99901155  0.15938591  1
  Br  Br38  1  0.69793461  0.02673467  0.27539630  1
  Br  Br39  1  0.00711143  0.26556415  0.51711993  1
  Br  Br40  1  0.31893432  0.01032386  0.72113544  1
  Br  Br41  1  0.79443682  0.97295749  0.78315842  1
  Br  Br42  1  0.48711128  0.76981142  0.00359060  1
  Br  Br43  1  0.73078357  0.50105047  0.34050552  1
  Br  Br44  1  0.19798735  0.47326821  0.22461189  1
  Br  Br45  1  0.98719854  0.73016440  0.49646739  1
  Br  Br46  1  0.29443306  0.52703024  0.71685570  1
  Br  Br47  1  0.81889928  0.48968393  0.77878798  1
