# generated using pymatgen
data_SiSnH10C2(Br3N2)2
_symmetry_space_group_name_H-M   'P 1'
_cell_length_a   8.23556896
_cell_length_b   11.38071491
_cell_length_c   8.15450547
_cell_angle_alpha   88.78147443
_cell_angle_beta   89.96867999
_cell_angle_gamma   89.98098011
_symmetry_Int_Tables_number   1
_chemical_formula_structural   SiSnH10C2(Br3N2)2
_chemical_formula_sum   'Si2 Sn2 H20 C4 Br12 N8'
_cell_volume   764.12159139
_cell_formula_units_Z   2
loop_
 _symmetry_equiv_pos_site_id
 _symmetry_equiv_pos_as_xyz
  1  'x, y, z'
loop_
 _atom_site_type_symbol
 _atom_site_label
 _atom_site_symmetry_multiplicity
 _atom_site_fract_x
 _atom_site_fract_y
 _atom_site_fract_z
 _atom_site_occupancy
  C  C0  1  0.49343319  0.29010835  0.49826918  1
  C  C1  1  0.99349361  0.20992119  0.00173241  1
  C  C2  1  0.50329414  0.79028649  0.50185980  1
  C  C3  1  0.00315389  0.70967642  0.99803104  1
  N  N4  1  0.59845235  0.23830343  0.59649039  1
  N  N5  1  0.39563781  0.23734582  0.39672533  1
  N  N6  1  0.09852220  0.26176395  0.90350093  1
  N  N7  1  0.89560664  0.26266470  0.10337422  1
  N  N8  1  0.60299821  0.73867228  0.60563252  1
  N  N9  1  0.40095899  0.73719631  0.40493391  1
  N  N10  1  0.10289319  0.76129759  0.89423367  1
  N  N11  1  0.90075526  0.76277831  0.09504850  1
  H  H12  1  0.48614004  0.38572225  0.50157338  1
  H  H13  1  0.66953699  0.28859486  0.66955304  1
  H  H14  1  0.61277714  0.14934439  0.60649286  1
  H  H15  1  0.31850087  0.28777694  0.32666145  1
  H  H16  1  0.39451262  0.14878487  0.37988248  1
  H  H17  1  0.98627995  0.11431045  0.99836937  1
  H  H18  1  0.16969052  0.21152077  0.83033158  1
  H  H19  1  0.11273273  0.35072914  0.89352073  1
  H  H20  1  0.81845644  0.21223883  0.17346976  1
  H  H21  1  0.89437028  0.35123005  0.12020726  1
  H  H22  1  0.50628326  0.88605087  0.49525231  1
  H  H23  1  0.67629966  0.79012838  0.67554581  1
  H  H24  1  0.61241451  0.64959604  0.62107599  1
  H  H25  1  0.33111942  0.78734444  0.32730211  1
  H  H26  1  0.38618692  0.64818911  0.40185557  1
  H  H27  1  0.00615647  0.61390238  0.00457244  1
  H  H28  1  0.17629495  0.70985493  0.82426927  1
  H  H29  1  0.11225608  0.85037415  0.87887299  1
  H  H30  1  0.83089387  0.71264586  0.17271709  1
  H  H31  1  0.88602941  0.85179144  0.09820521  1
  Si  Si32  1  0.47241184  0.98768227  0.99377448  1
  Si  Si33  1  0.97240642  0.51224459  0.50608128  1
  Sn  Sn34  1  0.98769994  0.00467899  0.49691792  1
  Sn  Sn35  1  0.48755765  0.49533580  0.00307428  1
  Br  Br36  1  0.49973758  0.26091491  0.99636865  1
  Br  Br37  1  0.24087849  0.98574883  0.19610265  1
  Br  Br38  1  0.72646277  0.01300238  0.28167703  1
  Br  Br39  1  0.99979287  0.23910071  0.50384432  1
  Br  Br40  1  0.29699647  0.00892299  0.74058095  1
  Br  Br41  1  0.78845224  0.98467718  0.76920834  1
  Br  Br42  1  0.49944332  0.77669282  0.99988637  1
  Br  Br43  1  0.74108573  0.51427730  0.30385637  1
  Br  Br44  1  0.22632494  0.48713521  0.21878990  1
  Br  Br45  1  0.99959174  0.72321406  0.49992185  1
  Br  Br46  1  0.28839333  0.51526908  0.73095648  1
  Br  Br47  1  0.79665239  0.49102086  0.75950128  1
