# generated using pymatgen
data_CdSiH10C2(Br3N2)2
_symmetry_space_group_name_H-M   'P 1'
_cell_length_a   8.18207012
_cell_length_b   10.65197200
_cell_length_c   8.53923571
_cell_angle_alpha   89.07546055
_cell_angle_beta   89.99767943
_cell_angle_gamma   89.99939543
_symmetry_Int_Tables_number   1
_chemical_formula_structural   CdSiH10C2(Br3N2)2
_chemical_formula_sum   'Cd2 Si2 H20 C4 Br12 N8'
_cell_volume   744.14175004
_cell_formula_units_Z   2
loop_
 _symmetry_equiv_pos_site_id
 _symmetry_equiv_pos_as_xyz
  1  'x, y, z'
loop_
 _atom_site_type_symbol
 _atom_site_label
 _atom_site_symmetry_multiplicity
 _atom_site_fract_x
 _atom_site_fract_y
 _atom_site_fract_z
 _atom_site_occupancy
  C  C0  1  0.49567045  0.29421377  0.51014926  1
  C  C1  1  0.99564743  0.20580375  0.98985906  1
  C  C2  1  0.50575465  0.78885697  0.50977198  1
  C  C3  1  0.00573935  0.71112242  0.99022702  1
  N  N4  1  0.59149034  0.24159599  0.61503735  1
  N  N5  1  0.39758933  0.23531262  0.41486507  1
  N  N6  1  0.09150042  0.25839778  0.88497197  1
  N  N7  1  0.89758853  0.26473132  0.08515248  1
  N  N8  1  0.60179981  0.73284456  0.61183183  1
  N  N9  1  0.41119988  0.73357985  0.40813546  1
  N  N10  1  0.10179769  0.76711560  0.88815302  1
  N  N11  1  0.91118877  0.76641649  0.09186369  1
  H  H12  1  0.49724570  0.39628899  0.50140026  1
  H  H13  1  0.66625486  0.29797315  0.67994255  1
  H  H14  1  0.60057129  0.14680439  0.63391479  1
  H  H15  1  0.32788500  0.28613412  0.33755858  1
  H  H16  1  0.38601200  0.14008182  0.41371721  1
  H  H17  1  0.99716548  0.10372795  0.99859596  1
  H  H18  1  0.16624233  0.20200448  0.82006200  1
  H  H19  1  0.10062796  0.35319081  0.86610146  1
  H  H20  1  0.82786223  0.21392598  0.16246102  1
  H  H21  1  0.88606328  0.35996398  0.08631297  1
  H  H22  1  0.50423118  0.89108570  0.50991332  1
  H  H23  1  0.67069092  0.78748217  0.68425415  1
  H  H24  1  0.61838504  0.63798705  0.61880444  1
  H  H25  1  0.34150110  0.78719512  0.33377434  1
  H  H26  1  0.39984209  0.63873070  0.39945860  1
  H  H27  1  0.00419909  0.60889406  0.99009925  1
  H  H28  1  0.17067909  0.71246136  0.81573435  1
  H  H29  1  0.11839840  0.86197042  0.88116376  1
  H  H30  1  0.84148388  0.71281567  0.16623410  1
  H  H31  1  0.89984298  0.86127012  0.10052430  1
  Si  Si32  1  0.49289354  0.01354613  0.04574896  1
  Si  Si33  1  0.99290315  0.48648675  0.45427418  1
  Cd  Cd34  1  0.00775944  0.99728703  0.57005718  1
  Cd  Cd35  1  0.50775373  0.50272839  0.92994683  1
  Br  Br36  1  0.48158057  0.26262708  0.02742478  1
  Br  Br37  1  0.24504219  0.99166805  0.20308051  1
  Br  Br38  1  0.68999122  0.01331902  0.26010606  1
  Br  Br39  1  0.98158630  0.23738277  0.47257639  1
  Br  Br40  1  0.29140366  0.01927264  0.71503283  1
  Br  Br41  1  0.77366703  0.98630231  0.78275290  1
  Br  Br42  1  0.50156526  0.73123247  0.02854848  1
  Br  Br43  1  0.74505587  0.50836189  0.29695172  1
  Br  Br44  1  0.19000268  0.48670506  0.23989578  1
  Br  Br45  1  0.00157633  0.76877539  0.47144915  1
  Br  Br46  1  0.27368149  0.51367630  0.71724462  1
  Br  Br47  1  0.79140635  0.48071251  0.78496877  1
