# generated using pymatgen
data_SrSiH10C2(Br3N2)2
_symmetry_space_group_name_H-M   'P 1'
_cell_length_a   8.14754879
_cell_length_b   11.27229122
_cell_length_c   8.13733222
_cell_angle_alpha   89.83099920
_cell_angle_beta   89.99997173
_cell_angle_gamma   89.99951753
_symmetry_Int_Tables_number   1
_chemical_formula_structural   SrSiH10C2(Br3N2)2
_chemical_formula_sum   'Sr2 Si2 H20 C4 Br12 N8'
_cell_volume   747.34189373
_cell_formula_units_Z   2
loop_
 _symmetry_equiv_pos_site_id
 _symmetry_equiv_pos_as_xyz
  1  'x, y, z'
loop_
 _atom_site_type_symbol
 _atom_site_label
 _atom_site_symmetry_multiplicity
 _atom_site_fract_x
 _atom_site_fract_y
 _atom_site_fract_z
 _atom_site_occupancy
  C  C0  1  0.49377661  0.29058104  0.49641115  1
  C  C1  1  0.99381898  0.20941419  0.00360091  1
  C  C2  1  0.50578547  0.79059108  0.50367802  1
  C  C3  1  0.00573465  0.70941366  0.99631076  1
  N  N4  1  0.59777526  0.23780398  0.59530280  1
  N  N5  1  0.39443941  0.23731892  0.39377237  1
  N  N6  1  0.09784257  0.26219272  0.90473910  1
  N  N7  1  0.89447276  0.26267305  0.10623605  1
  N  N8  1  0.60519484  0.73738375  0.60663300  1
  N  N9  1  0.40251299  0.73772791  0.40443416  1
  N  N10  1  0.10515352  0.76263098  0.89336931  1
  N  N11  1  0.90243827  0.76226651  0.09553471  1
  H  H12  1  0.48911120  0.38711039  0.50012434  1
  H  H13  1  0.67211234  0.28842394  0.66787313  1
  H  H14  1  0.60713139  0.14784988  0.60645416  1
  H  H15  1  0.31619016  0.28797277  0.32489911  1
  H  H16  1  0.39281982  0.14775045  0.37558690  1
  H  H17  1  0.98913750  0.11288550  0.99986521  1
  H  H18  1  0.17218855  0.21157301  0.83217714  1
  H  H19  1  0.10722398  0.35214632  0.89361840  1
  H  H20  1  0.81620088  0.21201876  0.17508380  1
  H  H21  1  0.89286207  0.35224046  0.12443774  1
  H  H22  1  0.50957190  0.88715078  0.49998001  1
  H  H23  1  0.67790376  0.78821872  0.68070563  1
  H  H24  1  0.61704588  0.64741341  0.61540326  1
  H  H25  1  0.33323405  0.78818666  0.32641169  1
  H  H26  1  0.38444339  0.64814674  0.40289130  1
  H  H27  1  0.00953921  0.61285426  1.00000552  1
  H  H28  1  0.17788557  0.71180312  0.81930668  1
  H  H29  1  0.11699129  0.85260350  0.88460640  1
  H  H30  1  0.83315631  0.71180130  0.17354317  1
  H  H31  1  0.88434563  0.85184522  0.09707215  1
  Si  Si32  1  0.49809828  0.00000931  0.99816203  1
  Si  Si33  1  0.99810243  0.50000006  0.50185380  1
  Sr  Sr34  1  0.00080613  0.00003221  0.49738973  1
  Sr  Sr35  1  0.50080423  0.49998032  0.00261621  1
  Br  Br36  1  0.49835293  0.23708759  0.99523906  1
  Br  Br37  1  0.22669311  0.98651298  0.20138379  1
  Br  Br38  1  0.70414809  0.01482664  0.27349368  1
  Br  Br39  1  0.99831866  0.26292551  0.50479842  1
  Br  Br40  1  0.29559859  0.01315296  0.72453352  1
  Br  Br41  1  0.77546481  0.98556783  0.79266066  1
  Br  Br42  1  0.50184244  0.76291842  0.00447780  1
  Br  Br43  1  0.72667539  0.51349160  0.29862486  1
  Br  Br44  1  0.20414028  0.48517473  0.22650276  1
  Br  Br45  1  0.00188872  0.73709458  0.49548299  1
  Br  Br46  1  0.27545532  0.51444140  0.70734635  1
  Br  Br47  1  0.79558968  0.48685386  0.77547103  1
