# generated using pymatgen
data_SiGeH10C2(Br3N2)2
_symmetry_space_group_name_H-M   'P 1'
_cell_length_a   8.12287344
_cell_length_b   11.30768167
_cell_length_c   8.21335885
_cell_angle_alpha   90.06351257
_cell_angle_beta   90.00237980
_cell_angle_gamma   90.00060273
_symmetry_Int_Tables_number   1
_chemical_formula_structural   SiGeH10C2(Br3N2)2
_chemical_formula_sum   'Si2 Ge2 H20 C4 Br12 N8'
_cell_volume   754.40366812
_cell_formula_units_Z   2
loop_
 _symmetry_equiv_pos_site_id
 _symmetry_equiv_pos_as_xyz
  1  'x, y, z'
loop_
 _atom_site_type_symbol
 _atom_site_label
 _atom_site_symmetry_multiplicity
 _atom_site_fract_x
 _atom_site_fract_y
 _atom_site_fract_z
 _atom_site_occupancy
  C  C0  1  0.49426372  0.29080900  0.49763130  1
  C  C1  1  0.99429108  0.20918697  0.00238394  1
  C  C2  1  0.50569532  0.79044326  0.50408195  1
  C  C3  1  0.00563294  0.70956087  0.99591390  1
  N  N4  1  0.59665725  0.23869460  0.59762928  1
  N  N5  1  0.39524550  0.23736085  0.39534388  1
  N  N6  1  0.09669361  0.26130833  0.90240603  1
  N  N7  1  0.89529052  0.26262919  0.10466441  1
  N  N8  1  0.60459947  0.73751074  0.60667796  1
  N  N9  1  0.40377312  0.73788920  0.40368404  1
  N  N10  1  0.10454496  0.76250228  0.89331004  1
  N  N11  1  0.90372257  0.76210268  0.09628629  1
  H  H12  1  0.49094865  0.38719115  0.49987684  1
  H  H13  1  0.66939390  0.29014542  0.67047487  1
  H  H14  1  0.60993414  0.14913779  0.60757205  1
  H  H15  1  0.31893551  0.28753078  0.32490326  1
  H  H16  1  0.38829733  0.14768274  0.38240628  1
  H  H17  1  0.99096911  0.11280290  0.00010924  1
  H  H18  1  0.16942309  0.20985775  0.82955363  1
  H  H19  1  0.10997752  0.35086415  0.89248646  1
  H  H20  1  0.81896492  0.21245745  0.17509255  1
  H  H21  1  0.88834197  0.35230631  0.11762284  1
  H  H22  1  0.50861931  0.88683511  0.50188255  1
  H  H23  1  0.67934437  0.78886698  0.67767068  1
  H  H24  1  0.61287570  0.64780939  0.61972235  1
  H  H25  1  0.33205828  0.78901373  0.32968421  1
  H  H26  1  0.38864612  0.64839258  0.39622952  1
  H  H27  1  0.00858002  0.61316603  0.99809791  1
  H  H28  1  0.17928699  0.71115102  0.82233549  1
  H  H29  1  0.11279506  0.85220036  0.88028715  1
  H  H30  1  0.83200838  0.71097706  0.17028730  1
  H  H31  1  0.88857797  0.85160309  0.10375614  1
  Si  Si32  1  0.49500352  0.98349061  0.02719262  1
  Si  Si33  1  0.99501598  0.51653032  0.47280751  1
  Ge  Ge34  1  0.00563750  0.01382532  0.52180330  1
  Ge  Ge35  1  0.50563788  0.48618933  0.97820850  1
  Br  Br36  1  0.49302491  0.26720549  0.99685110  1
  Br  Br37  1  0.24667136  0.98501667  0.20587785  1
  Br  Br38  1  0.70259418  0.00789606  0.24982222  1
  Br  Br39  1  0.99299170  0.23280904  0.50319360  1
  Br  Br40  1  0.26085051  0.01379214  0.71008004  1
  Br  Br41  1  0.79049774  0.98938535  0.75377651  1
  Br  Br42  1  0.50657020  0.77373758  0.00562631  1
  Br  Br43  1  0.74665419  0.51499503  0.29412491  1
  Br  Br44  1  0.20255692  0.49209964  0.25017727  1
  Br  Br45  1  0.00661092  0.72628400  0.49432777  1
  Br  Br46  1  0.29047915  0.51061502  0.74623227  1
  Br  Br47  1  0.76083428  0.48620162  0.78993862  1
