# generated using pymatgen
data_ZnSiH10C2(Br3N2)2
_symmetry_space_group_name_H-M   'P 1'
_cell_length_a   8.27980496
_cell_length_b   10.24505535
_cell_length_c   8.62337050
_cell_angle_alpha   91.15523149
_cell_angle_beta   89.99743065
_cell_angle_gamma   90.00208411
_symmetry_Int_Tables_number   1
_chemical_formula_structural   ZnSiH10C2(Br3N2)2
_chemical_formula_sum   'Zn2 Si2 H20 C4 Br12 N8'
_cell_volume   731.34648483
_cell_formula_units_Z   2
loop_
 _symmetry_equiv_pos_site_id
 _symmetry_equiv_pos_as_xyz
  1  'x, y, z'
loop_
 _atom_site_type_symbol
 _atom_site_label
 _atom_site_symmetry_multiplicity
 _atom_site_fract_x
 _atom_site_fract_y
 _atom_site_fract_z
 _atom_site_occupancy
  C  C0  1  0.49977395  0.28939835  0.50672219  1
  C  C1  1  0.99969548  0.21059410  0.99332941  1
  C  C2  1  0.50810175  0.79482074  0.51304734  1
  C  C3  1  0.00796356  0.70515389  0.98696107  1
  N  N4  1  0.59556104  0.23289087  0.60611640  1
  N  N5  1  0.39132196  0.23186555  0.41857084  1
  N  N6  1  0.09546548  0.26711701  0.89389380  1
  N  N7  1  0.89126712  0.26812608  0.08150977  1
  N  N8  1  0.60453354  0.73868748  0.61179736  1
  N  N9  1  0.40793931  0.73538898  0.41767997  1
  N  N10  1  0.10449471  0.76124310  0.88823312  1
  N  N11  1  0.90773699  0.76462198  0.08222543  1
  H  H12  1  0.51190257  0.39466295  0.49649609  1
  H  H13  1  0.67702682  0.28971895  0.66636727  1
  H  H14  1  0.59774084  0.13510802  0.62562240  1
  H  H15  1  0.32253519  0.28671707  0.34629397  1
  H  H16  1  0.36916893  0.13407440  0.41848561  1
  H  H17  1  0.01183566  0.10534280  0.00355086  1
  H  H18  1  0.17694230  0.21030146  0.83363531  1
  H  H19  1  0.09762303  0.36489382  0.87437378  1
  H  H20  1  0.82249319  0.21326231  0.15380755  1
  H  H21  1  0.86909525  0.36591663  0.08162394  1
  H  H22  1  0.51161855  0.90082294  0.50966115  1
  H  H23  1  0.67911795  0.79662292  0.67888334  1
  H  H24  1  0.61480638  0.63996693  0.62219053  1
  H  H25  1  0.33715358  0.78948601  0.34619565  1
  H  H26  1  0.39284865  0.63668498  0.41200581  1
  H  H27  1  0.01145616  0.59914134  0.99040509  1
  H  H28  1  0.17913106  0.70327432  0.82123273  1
  H  H29  1  0.11480846  0.85994338  0.87781796  1
  H  H30  1  0.83685962  0.71055133  0.15368188  1
  H  H31  1  0.89263189  0.86332023  0.08782198  1
  Si  Si32  1  0.48996407  0.97469313  0.03446602  1
  Si  Si33  1  0.98997647  0.52553241  0.46553617  1
  Zn  Zn34  1  0.01104311  0.00536150  0.59649803  1
  Zn  Zn35  1  0.51096818  0.49464975  0.90351567  1
  Br  Br36  1  0.48124630  0.29933182  0.04379396  1
  Br  Br37  1  0.24771331  0.98062453  0.18841089  1
  Br  Br38  1  0.67651121  0.00459164  0.24575894  1
  Br  Br39  1  0.98134198  0.20064923  0.45621628  1
  Br  Br40  1  0.27840039  0.01364146  0.71467760  1
  Br  Br41  1  0.79504282  0.98574546  0.78603122  1
  Br  Br42  1  0.49972741  0.71436553  0.03735702  1
  Br  Br43  1  0.74771805  0.51944118  0.31157749  1
  Br  Br44  1  0.17655468  0.49547627  0.25427251  1
  Br  Br45  1  -0.00020233  0.78572922  0.46242867  1
  Br  Br46  1  0.29499907  0.51419610  0.71396401  1
  Br  Br47  1  0.77836365  0.48631280  0.78536069  1
