# generated using pymatgen
data_CuSiH10C2(Br3N2)2
_symmetry_space_group_name_H-M   'P 1'
_cell_length_a   7.87647446
_cell_length_b   10.57937106
_cell_length_c   8.56446877
_cell_angle_alpha   92.95783603
_cell_angle_beta   87.21048070
_cell_angle_gamma   88.97228320
_symmetry_Int_Tables_number   1
_chemical_formula_structural   CuSiH10C2(Br3N2)2
_chemical_formula_sum   'Si2 Cu2 H20 C4 Br12 N8'
_cell_volume   711.71644577
_cell_formula_units_Z   2
loop_
 _symmetry_equiv_pos_site_id
 _symmetry_equiv_pos_as_xyz
  1  'x, y, z'
loop_
 _atom_site_type_symbol
 _atom_site_label
 _atom_site_symmetry_multiplicity
 _atom_site_fract_x
 _atom_site_fract_y
 _atom_site_fract_z
 _atom_site_occupancy
  C  C0  1  0.51500985  0.29638939  0.52119703  1
  C  C1  1  0.01225551  0.20913268  0.98494329  1
  C  C2  1  0.51029593  0.78179100  0.50601087  1
  C  C3  1  0.02051025  0.71045866  0.98245474  1
  N  N4  1  0.57993816  0.23735786  0.63587811  1
  N  N5  1  0.41180258  0.24683660  0.42017330  1
  N  N6  1  0.07317018  0.25945385  0.85813676  1
  N  N7  1  0.90036696  0.26346080  0.08644069  1
  N  N8  1  0.58231472  0.72724116  0.62017261  1
  N  N9  1  0.40238763  0.72812280  0.41267396  1
  N  N10  1  0.08151780  0.77582453  0.86737790  1
  N  N11  1  0.93021139  0.75603185  0.10563877  1
  H  H12  1  0.55311839  0.39356898  0.50559870  1
  H  H13  1  0.65717647  0.28647621  0.70902902  1
  H  H14  1  0.54167511  0.14893775  0.66376196  1
  H  H15  1  0.36174251  0.30210421  0.33857225  1
  H  H16  1  0.36602624  0.15752390  0.42779928  1
  H  H17  1  0.05977289  0.11489313  0.00849416  1
  H  H18  1  0.15643962  0.20617865  0.78470933  1
  H  H19  1  0.04124867  0.34897808  0.82955195  1
  H  H20  1  0.87008426  0.22127547  0.18819651  1
  H  H21  1  0.84990087  0.35179494  0.07320614  1
  H  H22  1  0.54419185  0.87907745  0.48594728  1
  H  H23  1  0.66757874  0.77626906  0.68427713  1
  H  H24  1  0.55664914  0.63689253  0.64895366  1
  H  H25  1  0.35043531  0.77932661  0.32845114  1
  H  H26  1  0.36182391  0.63759978  0.42182809  1
  H  H27  1  0.04909076  0.60917375  0.97479920  1
  H  H28  1  0.14785428  0.72778212  0.77670309  1
  H  H29  1  0.06248391  0.87065383  0.85972968  1
  H  H30  1  0.88754322  0.69654812  0.18865043  1
  H  H31  1  0.89981231  0.84968398  0.12578262  1
  Si  Si32  1  0.53124873  0.99721582  0.05374147  1
  Si  Si33  1  0.99042737  0.47985160  0.45020059  1
  Cu  Cu34  1  0.12653921  0.98028307  0.47944594  1
  Cu  Cu35  1  0.48957962  0.53721294  0.89229239  1
  Br  Br36  1  0.46678631  0.20853908  0.02055637  1
  Br  Br37  1  0.24052081  0.98421910  0.20951826  1
  Br  Br38  1  0.69848896  0.00989174  0.26450079  1
  Br  Br39  1  0.98294710  0.24677371  0.46957972  1
  Br  Br40  1  0.29067358  0.01716774  0.69883916  1
  Br  Br41  1  0.74174012  0.98850540  0.84590928  1
  Br  Br42  1  0.49248846  0.77045673  0.01015515  1
  Br  Br43  1  0.73951609  0.51153612  0.29810389  1
  Br  Br44  1  0.20549428  0.48164912  0.23065159  1
  Br  Br45  1  0.96080936  0.80156178  0.48857342  1
  Br  Br46  1  0.26774425  0.51303009  0.72851937  1
  Br  Br47  1  0.77058569  0.48532921  0.83437768  1
