# generated using pymatgen
data_CaSiH10C2(Br3N2)2
_symmetry_space_group_name_H-M   'P 1'
_cell_length_a   8.05998948
_cell_length_b   11.06102460
_cell_length_c   8.05013902
_cell_angle_alpha   89.84573975
_cell_angle_beta   89.99993263
_cell_angle_gamma   89.99970738
_symmetry_Int_Tables_number   1
_chemical_formula_structural   CaSiH10C2(Br3N2)2
_chemical_formula_sum   'Ca2 Si2 H20 C4 Br12 N8'
_cell_volume   717.68131538
_cell_formula_units_Z   2
loop_
 _symmetry_equiv_pos_site_id
 _symmetry_equiv_pos_as_xyz
  1  'x, y, z'
loop_
 _atom_site_type_symbol
 _atom_site_label
 _atom_site_symmetry_multiplicity
 _atom_site_fract_x
 _atom_site_fract_y
 _atom_site_fract_z
 _atom_site_occupancy
  C  C0  1  0.49391244  0.29077585  0.49646342  1
  C  C1  1  0.99395887  0.20922016  0.00355038  1
  C  C2  1  0.50578924  0.79078779  0.50371786  1
  C  C3  1  0.00573754  0.70921835  0.99626606  1
  N  N4  1  0.59878844  0.23722211  0.59663700  1
  N  N5  1  0.39350499  0.23658990  0.39283759  1
  N  N6  1  0.09886156  0.26277006  0.90341053  1
  N  N7  1  0.89354459  0.26339798  0.10716884  1
  N  N8  1  0.60635879  0.73663440  0.60752559  1
  N  N9  1  0.40130430  0.73717143  0.40348033  1
  N  N10  1  0.10631759  0.76338346  0.89247867  1
  N  N11  1  0.90122196  0.76282792  0.09648637  1
  H  H12  1  0.48929603  0.38915579  0.49984796  1
  H  H13  1  0.67251866  0.28932560  0.67073229  1
  H  H14  1  0.61048496  0.14564826  0.60703756  1
  H  H15  1  0.31592195  0.28870853  0.32223372  1
  H  H16  1  0.38915239  0.14520181  0.37617835  1
  H  H17  1  0.98932489  0.11083619  0.00014031  1
  H  H18  1  0.17260432  0.21066873  0.82931831  1
  H  H19  1  0.11058713  0.35434735  0.89303924  1
  H  H20  1  0.81593683  0.21128084  0.17775042  1
  H  H21  1  0.88919848  0.35478871  0.12384521  1
  H  H22  1  0.50975936  0.88918536  0.50017002  1
  H  H23  1  0.68075377  0.78885152  0.68100429  1
  H  H24  1  0.61693985  0.64499658  0.61864814  1
  H  H25  1  0.33049965  0.78918578  0.32611854  1
  H  H26  1  0.38433513  0.64583053  0.39912976  1
  H  H27  1  0.00972012  0.61082310  0.99981157  1
  H  H28  1  0.18073312  0.71117358  0.81901066  1
  H  H29  1  0.11688859  0.85502039  0.88136511  1
  H  H30  1  0.83041120  0.71080409  0.17382912  1
  H  H31  1  0.88423178  0.85416486  0.10082991  1
  Si  Si32  1  0.49614202  1.00001113  0.99863545  1
  Si  Si33  1  0.99615460  0.49999839  0.50138548  1
  Ca  Ca34  1  0.99983564  1.00000217  0.49829833  1
  Ca  Ca35  1  0.49983549  0.50000898  0.00171182  1
  Br  Br36  1  0.49856962  0.24220673  0.99638810  1
  Br  Br37  1  0.22509510  0.98689210  0.21006443  1
  Br  Br38  1  0.71412720  0.01255620  0.27512261  1
  Br  Br39  1  0.99853431  0.25780486  0.50365241  1
  Br  Br40  1  0.28728245  0.01298317  0.72251952  1
  Br  Br41  1  0.77774562  0.98753684  0.78317299  1
  Br  Br42  1  0.50192622  0.75778855  0.00400503  1
  Br  Br43  1  0.72507805  0.51311064  0.28993702  1
  Br  Br44  1  0.21412089  0.48745095  0.22487876  1
  Br  Br45  1  0.00197199  0.74222409  0.49595267  1
  Br  Br46  1  0.27773189  0.51247374  0.71683156  1
  Br  Br47  1  0.78726972  0.48701746  0.77748540  1
