# generated using pymatgen
data_SrSiH12C2(I3N)2
_symmetry_space_group_name_H-M   'P 1'
_cell_length_a   8.50512729
_cell_length_b   12.24266972
_cell_length_c   8.36175127
_cell_angle_alpha   88.59303230
_cell_angle_beta   90.00451335
_cell_angle_gamma   90.00864878
_symmetry_Int_Tables_number   1
_chemical_formula_structural   SrSiH12C2(I3N)2
_chemical_formula_sum   'Sr2 Si2 H24 C4 I12 N4'
_cell_volume   870.40872432
_cell_formula_units_Z   2
loop_
 _symmetry_equiv_pos_site_id
 _symmetry_equiv_pos_as_xyz
  1  'x, y, z'
loop_
 _atom_site_type_symbol
 _atom_site_label
 _atom_site_symmetry_multiplicity
 _atom_site_fract_x
 _atom_site_fract_y
 _atom_site_fract_z
 _atom_site_occupancy
  C  C0  1  0.39772677  0.24997893  0.41562966  1
  C  C1  1  0.89879542  0.25014494  0.08541551  1
  C  C2  1  0.60226997  0.75002330  0.58438427  1
  C  C3  1  0.10121146  0.74985641  0.91459461  1
  N  N4  1  0.53805742  0.24941798  0.52081849  1
  N  N5  1  0.03848970  0.25061397  0.97937489  1
  N  N6  1  0.46193814  0.75058962  0.47919717  1
  N  N7  1  0.96151735  0.74938436  0.02063655  1
  H  H8  1  0.43686380  0.25069659  0.29076353  1
  H  H9  1  0.32944570  0.17591437  0.44115937  1
  H  H10  1  0.32777442  0.32275191  0.43892103  1
  H  H11  1  0.60678173  0.18121130  0.49821520  1
  H  H12  1  0.60625218  0.31871282  0.49752050  1
  H  H13  1  0.50836111  0.24749065  0.64203927  1
  H  H14  1  0.93865652  0.24946125  0.20999208  1
  H  H15  1  0.82856080  0.17740206  0.06257831  1
  H  H16  1  0.83048398  0.32426485  0.06023939  1
  H  H17  1  0.10671428  0.18126692  0.00240201  1
  H  H18  1  0.10745432  0.31877959  0.00158831  1
  H  H19  1  0.00818001  0.25250179  0.85835392  1
  H  H20  1  0.56313474  0.74930878  0.70925125  1
  H  H21  1  0.67222019  0.67725239  0.56109304  1
  H  H22  1  0.67055310  0.82409007  0.55885284  1
  H  H23  1  0.39321499  0.81879314  0.50180141  1
  H  H24  1  0.39374314  0.68129148  0.50249550  1
  H  H25  1  0.49163387  0.75251486  0.35797631  1
  H  H26  1  0.06134913  0.75054300  0.79001943  1
  H  H27  1  0.17144432  0.82259935  0.93743592  1
  H  H28  1  0.16952282  0.67573707  0.93976717  1
  H  H29  1  0.89329003  0.81873029  0.99761226  1
  H  H30  1  0.89255432  0.68121728  0.99842192  1
  H  H31  1  0.99182748  0.74749524  0.14165811  1
  Si  Si32  1  0.50000371  0.00000261  0.00000972  1
  Si  Si33  1  0.99999632  0.50000239  0.50000187  1
  Sr  Sr34  1  0.00000185  0.00000283  0.50000734  1
  Sr  Sr35  1  0.49999793  0.50000378  0.00000161  1
  I  I36  1  0.47618151  0.23857367  0.94301221  1
  I  I37  1  0.19526274  0.00884880  0.16751290  1
  I  I38  1  0.66838989  0.01759475  0.30882383  1
  I  I39  1  0.97559193  0.26142753  0.55750041  1
  I  I40  1  0.33161109  0.98241175  0.69119365  1
  I  I41  1  0.80474453  0.99115402  0.83250424  1
  I  I42  1  0.52382407  0.76143333  0.05700391  1
  I  I43  1  0.69530289  0.49101948  0.33237248  1
  I  I44  1  0.16852681  0.48249094  0.19125662  1
  I  I45  1  0.02440254  0.73857818  0.44251024  1
  I  I46  1  0.30469285  0.50898370  0.66763049  1
  I  I47  1  0.83146984  0.51751394  0.80874587  1
