# generated using pymatgen
data_TlPH10C2(Br3N2)2
_symmetry_space_group_name_H-M   'P 1'
_cell_length_a   8.12735943
_cell_length_b   11.23682350
_cell_length_c   8.11443106
_cell_angle_alpha   89.64796487
_cell_angle_beta   89.99979658
_cell_angle_gamma   90.00178787
_symmetry_Int_Tables_number   1
_chemical_formula_structural   TlPH10C2(Br3N2)2
_chemical_formula_sum   'Tl2 P2 H20 C4 Br12 N8'
_cell_volume   741.04213684
_cell_formula_units_Z   2
loop_
 _symmetry_equiv_pos_site_id
 _symmetry_equiv_pos_as_xyz
  1  'x, y, z'
loop_
 _atom_site_type_symbol
 _atom_site_label
 _atom_site_symmetry_multiplicity
 _atom_site_fract_x
 _atom_site_fract_y
 _atom_site_fract_z
 _atom_site_occupancy
  C  C0  1  0.49383971  0.29076695  0.49635835  1
  C  C1  1  0.99388728  0.20922848  0.00365605  1
  C  C2  1  0.50562811  0.79078411  0.50331196  1
  C  C3  1  0.00557913  0.70922104  0.99667632  1
  N  N4  1  0.59915689  0.23778021  0.59460149  1
  N  N5  1  0.39337385  0.23758265  0.39427439  1
  N  N6  1  0.09922378  0.26222056  0.90544514  1
  N  N7  1  0.89341167  0.26240855  0.10573370  1
  N  N8  1  0.60448334  0.73772417  0.60786181  1
  N  N9  1  0.40288155  0.73764458  0.40331612  1
  N  N10  1  0.10444321  0.76229143  0.89213908  1
  N  N11  1  0.90279884  0.76234766  0.09665333  1
  H  H12  1  0.48881485  0.38761048  0.50020073  1
  H  H13  1  0.67455553  0.28865116  0.66594713  1
  H  H14  1  0.60835741  0.14760617  0.60762023  1
  H  H15  1  0.31365427  0.28874203  0.32697388  1
  H  H16  1  0.39228143  0.14792866  0.37444106  1
  H  H17  1  0.98884458  0.11238496  0.99979748  1
  H  H18  1  0.17463865  0.21134918  0.83410647  1
  H  H19  1  0.10845389  0.35239436  0.89244679  1
  H  H20  1  0.81366612  0.21124482  0.17301194  1
  H  H21  1  0.89232659  0.35205931  0.12558163  1
  H  H22  1  0.50962346  0.88767560  0.49881609  1
  H  H23  1  0.67583518  0.78911490  0.68288136  1
  H  H24  1  0.61781026  0.64755691  0.61705938  1
  H  H25  1  0.33508342  0.78833463  0.32362912  1
  H  H26  1  0.38287035  0.64796185  0.40279302  1
  H  H27  1  0.00959154  0.61233057  0.00117963  1
  H  H28  1  0.17581409  0.71091190  0.81713553  1
  H  H29  1  0.11775131  0.85246055  0.88294309  1
  H  H30  1  0.83500023  0.71165168  0.17632632  1
  H  H31  1  0.88277091  0.85202897  0.09716114  1
  P  P32  1  0.49673931  0.00002033  0.99799320  1
  P  P33  1  0.99674120  0.49998525  0.50202040  1
  Tl  Tl34  1  0.99814137  0.00002030  0.49810162  1
  Tl  Tl35  1  0.49814394  0.49998777  0.00190630  1
  Br  Br36  1  0.49866797  0.22601928  0.99502583  1
  Br  Br37  1  0.24560767  0.99063117  0.18955332  1
  Br  Br38  1  0.69472439  0.01083856  0.25669476  1
  Br  Br39  1  0.99863109  0.27399374  0.50501342  1
  Br  Br40  1  0.30736870  0.00868795  0.74302396  1
  Br  Br41  1  0.75888511  0.98998161  0.80157008  1
  Br  Br42  1  0.50166646  0.77405836  0.00354654  1
  Br  Br43  1  0.74559079  0.50936596  0.31045083  1
  Br  Br44  1  0.19471902  0.48915665  0.24329849  1
  Br  Br45  1  0.00170602  0.72595492  0.49641653  1
  Br  Br46  1  0.25887133  0.51003411  0.69843251  1
  Br  Br47  1  0.80736354  0.49132794  0.75697722  1
