# generated using pymatgen
data_AgPH10C2(Br3N2)2
_symmetry_space_group_name_H-M   'P 1'
_cell_length_a   8.62342280
_cell_length_b   10.74059617
_cell_length_c   7.87678413
_cell_angle_alpha   90.01363160
_cell_angle_beta   87.39305646
_cell_angle_gamma   89.77882125
_symmetry_Int_Tables_number   1
_chemical_formula_structural   AgPH10C2(Br3N2)2
_chemical_formula_sum   'Ag2 P2 H20 C4 Br12 N8'
_cell_volume   728.79274242
_cell_formula_units_Z   2
loop_
 _symmetry_equiv_pos_site_id
 _symmetry_equiv_pos_as_xyz
  1  'x, y, z'
loop_
 _atom_site_type_symbol
 _atom_site_label
 _atom_site_symmetry_multiplicity
 _atom_site_fract_x
 _atom_site_fract_y
 _atom_site_fract_z
 _atom_site_occupancy
  C  C0  1  0.48518246  0.29789381  0.50855173  1
  C  C1  1  0.01290272  0.20035507  0.00564443  1
  C  C2  1  0.51004246  0.77338786  0.48425803  1
  C  C3  1  0.99507170  0.72693981  0.98021764  1
  N  N4  1  0.61239853  0.25241719  0.56903171  1
  N  N5  1  0.39376594  0.23748630  0.40868170  1
  N  N6  1  0.11650491  0.24599037  0.89557417  1
  N  N7  1  0.88710264  0.25820944  0.06213396  1
  N  N8  1  0.59770566  0.71915005  0.59426998  1
  N  N9  1  0.36547460  0.74424917  0.45874062  1
  N  N10  1  0.13740891  0.76837245  0.95917028  1
  N  N11  1  0.88818559  0.77430340  0.08519808  1
  H  H12  1  0.44963706  0.39190021  0.54673610  1
  H  H13  1  0.67708885  0.30784692  0.64501060  1
  H  H14  1  0.65476652  0.16694591  0.53178070  1
  H  H15  1  0.29415138  0.27841987  0.37139473  1
  H  H16  1  0.41363962  0.14787334  0.36900131  1
  H  H17  1  0.03570370  0.10776378  0.05621228  1
  H  H18  1  0.21234365  0.19409882  0.86217346  1
  H  H19  1  0.11256754  0.33474854  0.84758639  1
  H  H20  1  0.81256293  0.21151922  0.14466280  1
  H  H21  1  0.85271152  0.34152939  0.01134500  1
  H  H22  1  0.56159737  0.84961787  0.40912075  1
  H  H23  1  0.71329805  0.74204099  0.59891055  1
  H  H24  1  0.55888364  0.64736619  0.66935670  1
  H  H25  1  0.30683039  0.79554466  0.37283561  1
  H  H26  1  0.30784697  0.67524015  0.52529606  1
  H  H27  1  0.96256626  0.64652823  0.90475895  1
  H  H28  1  0.21251127  0.72021655  0.87941202  1
  H  H29  1  0.17982047  0.83994416  0.02983125  1
  H  H30  1  0.77523613  0.74350581  0.08355090  1
  H  H31  1  0.90661606  0.85104546  0.15791913  1
  P  P32  1  0.52413599  0.01662041  0.96021326  1
  P  P33  1  0.98185052  0.48489747  0.45720690  1
  Ag  Ag34  1  0.98005198  0.97956524  0.42178383  1
  Ag  Ag35  1  0.49396206  0.51246218  0.93042802  1
  Br  Br36  1  0.50143338  0.23617324  0.99184082  1
  Br  Br37  1  0.24194132  0.99171491  0.23427484  1
  Br  Br38  1  0.71104595  0.03047961  0.28711445  1
  Br  Br39  1  0.99954770  0.26425721  0.48300156  1
  Br  Br40  1  0.35370559  0.99874272  0.74205776  1
  Br  Br41  1  0.75280541  0.00203688  0.80029178  1
  Br  Br42  1  0.51330983  0.74239992  0.04407979  1
  Br  Br43  1  0.76341937  0.50225028  0.30484276  1
  Br  Br44  1  0.16995663  0.50329441  0.23799484  1
  Br  Br45  1  0.97992953  0.75426946  0.54708505  1
  Br  Br46  1  0.25063904  0.51260741  0.73572769  1
  Br  Br47  1  0.78015951  0.47584065  0.79379379  1
