# generated using pymatgen
data_YPH10C2(Br3N2)2
_symmetry_space_group_name_H-M   'P 1'
_cell_length_a   8.95126638
_cell_length_b   10.98239337
_cell_length_c   7.81001426
_cell_angle_alpha   89.06086773
_cell_angle_beta   86.66324167
_cell_angle_gamma   88.41050746
_symmetry_Int_Tables_number   1
_chemical_formula_structural   YPH10C2(Br3N2)2
_chemical_formula_sum   'Y2 P2 H20 C4 Br12 N8'
_cell_volume   766.09329145
_cell_formula_units_Z   2
loop_
 _symmetry_equiv_pos_site_id
 _symmetry_equiv_pos_as_xyz
  1  'x, y, z'
loop_
 _atom_site_type_symbol
 _atom_site_label
 _atom_site_symmetry_multiplicity
 _atom_site_fract_x
 _atom_site_fract_y
 _atom_site_fract_z
 _atom_site_occupancy
  C  C0  1  0.46693176  0.28604473  0.49162951  1
  C  C1  1  0.02076576  0.22295101  0.98669331  1
  C  C2  1  0.51308569  0.80090565  0.49333110  1
  C  C3  1  0.99961174  0.69561941  0.99422370  1
  N  N4  1  0.59281144  0.23652949  0.54159266  1
  N  N5  1  0.36563507  0.22788825  0.41268471  1
  N  N6  1  0.12650232  0.27234768  0.88738578  1
  N  N7  1  0.90134927  0.28144754  0.05225197  1
  N  N8  1  0.61742004  0.74029389  0.57213192  1
  N  N9  1  0.39127850  0.75382913  0.43951890  1
  N  N10  1  0.12669584  0.74778078  0.95115848  1
  N  N11  1  0.88486098  0.74781714  0.07861511  1
  H  H12  1  0.44535292  0.38177210  0.52190349  1
  H  H13  1  0.66410803  0.28953851  0.60250104  1
  H  H14  1  0.62318129  0.14692033  0.52694396  1
  H  H15  1  0.27864034  0.27967127  0.36926532  1
  H  H16  1  0.39779875  0.14712527  0.34516576  1
  H  H17  1  0.03253757  0.12652378  0.02096149  1
  H  H18  1  0.20865124  0.21449373  0.83704988  1
  H  H19  1  0.10492807  0.35401458  0.81941104  1
  H  H20  1  0.82616659  0.23500173  0.12940578  1
  H  H21  1  0.88066321  0.37255141  0.03672657  1
  H  H22  1  0.52943796  0.89798223  0.46973910  1
  H  H23  1  0.70551350  0.78564657  0.61594876  1
  H  H24  1  0.61276793  0.64883054  0.59800852  1
  H  H25  1  0.31973432  0.80651818  0.37088600  1
  H  H26  1  0.36386881  0.66517508  0.46290081  1
  H  H27  1  0.98830124  0.60156996  0.95479323  1
  H  H28  1  0.20813948  0.69996512  0.88110569  1
  H  H29  1  0.15040071  0.83336123  0.98928566  1
  H  H30  1  0.79035016  0.69979870  0.10849444  1
  H  H31  1  0.88255946  0.83743616  0.11297173  1
  P  P32  1  0.51292795  0.05058330  0.12911306  1
  P  P33  1  0.98261812  0.44665313  0.59821390  1
  Y  Y34  1  0.03124804  0.97935021  0.56189828  1
  Y  Y35  1  0.47667868  0.51025017  0.05175832  1
  Br  Br36  1  0.52016104  0.23976351  0.98481252  1
  Br  Br37  1  0.15825629  0.98288270  0.23415908  1
  Br  Br38  1  0.75245883  0.02479695  0.23099405  1
  Br  Br39  1  0.97160223  0.24916686  0.48639828  1
  Br  Br40  1  0.27450225  0.00272769  0.74042166  1
  Br  Br41  1  0.77117168  0.99631640  0.74835900  1
  Br  Br42  1  0.50988029  0.75092610  0.01269828  1
  Br  Br43  1  0.69970170  0.49700176  0.26945411  1
  Br  Br44  1  0.22414517  0.49558414  0.25036362  1
  Br  Br45  1  0.00703364  0.73814926  0.53171219  1
  Br  Br46  1  0.33858812  0.52199754  0.74535117  1
  Br  Br47  1  0.74899530  0.47656207  0.74971182  1
