# generated using pymatgen
data_GaPH10C2(Br3N2)2
_symmetry_space_group_name_H-M   'P 1'
_cell_length_a   8.11277373
_cell_length_b   11.05935312
_cell_length_c   8.03249326
_cell_angle_alpha   88.71618912
_cell_angle_beta   90.00038829
_cell_angle_gamma   90.00246200
_symmetry_Int_Tables_number   1
_chemical_formula_structural   GaPH10C2(Br3N2)2
_chemical_formula_sum   'Ga2 P2 H20 C4 Br12 N8'
_cell_volume   720.51068754
_cell_formula_units_Z   2
loop_
 _symmetry_equiv_pos_site_id
 _symmetry_equiv_pos_as_xyz
  1  'x, y, z'
loop_
 _atom_site_type_symbol
 _atom_site_label
 _atom_site_symmetry_multiplicity
 _atom_site_fract_x
 _atom_site_fract_y
 _atom_site_fract_z
 _atom_site_occupancy
  C  C0  1  0.49357753  0.29111370  0.49993706  1
  C  C1  1  0.99360462  0.20889318  0.00007252  1
  C  C2  1  0.50239808  0.79107416  0.49936864  1
  C  C3  1  0.00234190  0.70891296  1.00064014  1
  N  N4  1  0.60354656  0.23758575  0.59539071  1
  N  N5  1  0.39614958  0.23693569  0.39535800  1
  N  N6  1  0.10356975  0.26242997  0.90464321  1
  N  N7  1  0.89614725  0.26306703  0.10464964  1
  N  N8  1  0.60070282  0.73898716  0.60838273  1
  N  N9  1  0.39747562  0.73534612  0.40358983  1
  N  N10  1  0.10060676  0.76100537  0.89159083  1
  N  N11  1  0.89741789  0.76463081  0.09642298  1
  H  H12  1  0.48056743  0.38882863  0.50898153  1
  H  H13  1  0.67353121  0.28810249  0.67282362  1
  H  H14  1  0.62267733  0.14630466  0.60030791  1
  H  H15  1  0.31463891  0.28837685  0.32721221  1
  H  H16  1  0.40079431  0.14656609  0.37341158  1
  H  H17  1  0.98060125  0.11117886  0.99103834  1
  H  H18  1  0.17357589  0.21192023  0.82722214  1
  H  H19  1  0.12269212  0.35371460  0.89971590  1
  H  H20  1  0.81463595  0.21161921  0.17277499  1
  H  H21  1  0.90077765  0.35343693  0.12658102  1
  H  H22  1  0.51017399  0.88919349  0.48610551  1
  H  H23  1  0.67653457  0.79300931  0.67686783  1
  H  H24  1  0.60391640  0.64782885  0.63083093  1
  H  H25  1  0.32846793  0.78591451  0.32196804  1
  H  H26  1  0.37850980  0.64393597  0.40555856  1
  H  H27  1  0.01015875  0.61079682  0.01392852  1
  H  H28  1  0.17642616  0.70699722  0.82309036  1
  H  H29  1  0.10375598  0.85216498  0.86910365  1
  H  H30  1  0.82846447  0.71405147  0.17808916  1
  H  H31  1  0.87843215  0.85603438  0.09444794  1
  P  P32  1  0.47893951  0.98888617  0.99347526  1
  P  P33  1  0.97899442  0.51109982  0.50652349  1
  Ga  Ga34  1  0.97696873  0.01132344  0.49492754  1
  Ga  Ga35  1  0.47696378  0.48871640  0.00506922  1
  Br  Br36  1  0.50169900  0.25518695  0.99524305  1
  Br  Br37  1  0.25236814  0.98954862  0.19098990  1
  Br  Br38  1  0.71943037  0.01145956  0.27274102  1
  Br  Br39  1  0.00168967  0.24487071  0.50477582  1
  Br  Br40  1  0.30781538  0.00716463  0.74876829  1
  Br  Br41  1  0.77956714  0.98405998  0.77423686  1
  Br  Br42  1  0.49973424  0.77660082  0.00186254  1
  Br  Br43  1  0.75238455  0.51043720  0.30901473  1
  Br  Br44  1  0.21943112  0.48855020  0.22728550  1
  Br  Br45  1  0.99978365  0.72340727  0.49810004  1
  Br  Br46  1  0.27953691  0.51595293  0.72575356  1
  Br  Br47  1  0.80784213  0.49284081  0.75123190  1
