# generated using pymatgen
data_CuPH10C2(Br3N2)2
_symmetry_space_group_name_H-M   'P 1'
_cell_length_a   7.70288783
_cell_length_b   10.88022715
_cell_length_c   8.55427865
_cell_angle_alpha   88.69833095
_cell_angle_beta   90.00060901
_cell_angle_gamma   89.99825515
_symmetry_Int_Tables_number   1
_chemical_formula_structural   CuPH10C2(Br3N2)2
_chemical_formula_sum   'Cu2 P2 H20 C4 Br12 N8'
_cell_volume   716.74198255
_cell_formula_units_Z   2
loop_
 _symmetry_equiv_pos_site_id
 _symmetry_equiv_pos_as_xyz
  1  'x, y, z'
loop_
 _atom_site_type_symbol
 _atom_site_label
 _atom_site_symmetry_multiplicity
 _atom_site_fract_x
 _atom_site_fract_y
 _atom_site_fract_z
 _atom_site_occupancy
  C  C0  1  0.48331599  0.28032023  0.49444680  1
  C  C1  1  0.98336993  0.21969589  0.00551083  1
  C  C2  1  0.50846532  0.78877336  0.48102829  1
  C  C3  1  0.00842376  0.71121633  0.01899399  1
  N  N4  1  0.59353115  0.23965023  0.59993752  1
  N  N5  1  0.42512741  0.21724761  0.37653591  1
  N  N6  1  0.09361144  0.26037866  0.90005435  1
  N  N7  1  0.92519522  0.28273903  0.12345275  1
  N  N8  1  0.55450278  0.73665165  0.61424931  1
  N  N9  1  0.42929643  0.73373701  0.36682892  1
  N  N10  1  0.05456506  0.76335089  0.88577773  1
  N  N11  1  0.92935472  0.76627159  0.13319369  1
  H  H12  1  0.43381898  0.37350741  0.50721356  1
  H  H13  1  0.63133142  0.29664574  0.68652962  1
  H  H14  1  0.64831153  0.15369908  0.60097655  1
  H  H15  1  0.34641640  0.26200376  0.29759213  1
  H  H16  1  0.47622951  0.13380618  0.34822641  1
  H  H17  1  0.93383941  0.12652435  0.99267662  1
  H  H18  1  0.13140156  0.20341242  0.81342881  1
  H  H19  1  0.14841300  0.34632091  0.89907040  1
  H  H20  1  0.84647109  0.23797381  0.20237030  1
  H  H21  1  0.97633568  0.36615690  0.15181252  1
  H  H22  1  0.54128006  0.88557761  0.46227381  1
  H  H23  1  0.61246186  0.78746210  0.69864595  1
  H  H24  1  0.51762200  0.64899977  0.64558668  1
  H  H25  1  0.40385393  0.78086768  0.26482548  1
  H  H26  1  0.39048347  0.64373962  0.37139734  1
  H  H27  1  0.04109438  0.61437611  0.03767025  1
  H  H28  1  0.11242585  0.71252293  0.80135659  1
  H  H29  1  0.01780981  0.85103722  0.85450104  1
  H  H30  1  0.90380428  0.71912546  0.23516722  1
  H  H31  1  0.89065074  0.85629968  0.12867830  1
  P  P32  1  0.47372246  0.01310000  0.97105840  1
  P  P33  1  0.97368565  0.48689112  0.52893213  1
  Cu  Cu34  1  0.87537528  0.93876776  0.50712408  1
  Cu  Cu35  1  0.37538753  0.56122332  0.99289836  1
  Br  Br36  1  0.50813137  0.22594510  0.98597896  1
  Br  Br37  1  0.24851806  0.99214868  0.15347529  1
  Br  Br38  1  0.75149675  0.02555294  0.27807790  1
  Br  Br39  1  0.00807472  0.27404092  0.51402285  1
  Br  Br40  1  0.30960129  0.00588227  0.74543134  1
  Br  Br41  1  0.79896069  0.99819270  0.76373696  1
  Br  Br42  1  0.53787952  0.74277670  0.99466339  1
  Br  Br43  1  0.74849987  0.50786291  0.34651017  1
  Br  Br44  1  0.25146600  0.47446531  0.22195907  1
  Br  Br45  1  0.03783907  0.75721407  0.50539773  1
  Br  Br46  1  0.29897888  0.50179112  0.73626425  1
  Br  Br47  1  0.80958801  0.49411683  0.75456419  1
