# generated using pymatgen
data_ScPH10C2(Br3N2)2
_symmetry_space_group_name_H-M   'P 1'
_cell_length_a   8.91613874
_cell_length_b   10.84453130
_cell_length_c   7.71369783
_cell_angle_alpha   89.78145394
_cell_angle_beta   87.13630065
_cell_angle_gamma   88.79618799
_symmetry_Int_Tables_number   1
_chemical_formula_structural   ScPH10C2(Br3N2)2
_chemical_formula_sum   'Sc2 P2 H20 C4 Br12 N8'
_cell_volume   744.74914893
_cell_formula_units_Z   2
loop_
 _symmetry_equiv_pos_site_id
 _symmetry_equiv_pos_as_xyz
  1  'x, y, z'
loop_
 _atom_site_type_symbol
 _atom_site_label
 _atom_site_symmetry_multiplicity
 _atom_site_fract_x
 _atom_site_fract_y
 _atom_site_fract_z
 _atom_site_occupancy
  C  C0  1  0.46773640  0.28239234  0.48457002  1
  C  C1  1  0.01716338  0.22270131  0.98822744  1
  C  C2  1  0.51925619  0.79954304  0.50227636  1
  C  C3  1  0.99568363  0.69588172  1.00132990  1
  N  N4  1  0.59849075  0.24040761  0.53320678  1
  N  N5  1  0.37089983  0.21935069  0.40043434  1
  N  N6  1  0.12350330  0.27600992  0.89307139  1
  N  N7  1  0.89401556  0.27764403  0.05169415  1
  N  N8  1  0.62481496  0.73616677  0.57693237  1
  N  N9  1  0.39366783  0.75419896  0.45088509  1
  N  N10  1  0.12376578  0.74723631  0.95719657  1
  N  N11  1  0.88028931  0.75154027  0.08157100  1
  H  H12  1  0.43733922  0.37706438  0.52109217  1
  H  H13  1  0.66428868  0.29770518  0.59965867  1
  H  H14  1  0.63833244  0.15275874  0.51025356  1
  H  H15  1  0.27747155  0.26654312  0.36357053  1
  H  H16  1  0.40315024  0.14066444  0.32455701  1
  H  H17  1  0.03233815  0.12540934  0.02091716  1
  H  H18  1  0.20885422  0.21989194  0.84435639  1
  H  H19  1  0.10341420  0.35800635  0.82408252  1
  H  H20  1  0.81900355  0.22745251  0.12522275  1
  H  H21  1  0.86776197  0.36854697  0.03308229  1
  H  H22  1  0.53831332  0.89743633  0.47980648  1
  H  H23  1  0.71776492  0.77990307  0.61598423  1
  H  H24  1  0.61818660  0.64364892  0.60195489  1
  H  H25  1  0.32068807  0.80897413  0.38607564  1
  H  H26  1  0.36577412  0.66402693  0.46865708  1
  H  H27  1  0.98365262  0.59928839  0.96660442  1
  H  H28  1  0.20529185  0.69718146  0.88904101  1
  H  H29  1  0.14645937  0.83632841  0.98716141  1
  H  H30  1  0.78520037  0.70331776  0.11253013  1
  H  H31  1  0.87884242  0.84319407  0.11280577  1
  P  P32  1  0.50371172  0.05472703  0.08701095  1
  P  P33  1  0.99398745  0.44542719  0.58350878  1
  Sc  Sc34  1  0.03584422  0.97092763  0.56679670  1
  Sc  Sc35  1  0.46846441  0.52274175  0.06113406  1
  Br  Br36  1  0.51626310  0.25461143  0.97403393  1
  Br  Br37  1  0.13976757  0.98360630  0.25313015  1
  Br  Br38  1  0.72679880  0.02710786  0.22855578  1
  Br  Br39  1  0.98146730  0.24311500  0.48263275  1
  Br  Br40  1  0.26266848  0.00132421  0.73924330  1
  Br  Br41  1  0.79194706  0.99937170  0.73958511  1
  Br  Br42  1  0.50121600  0.75195359  0.02215027  1
  Br  Br43  1  0.68585936  0.49982551  0.25811581  1
  Br  Br44  1  0.23449419  0.49989046  0.24803329  1
  Br  Br45  1  0.01398035  0.74121554  0.53879071  1
  Br  Br46  1  0.35410799  0.51796765  0.76126317  1
  Br  Br47  1  0.76802652  0.47583473  0.74731052  1
