# generated using pymatgen
data_CaH10PbC2(Br3N2)2
_symmetry_space_group_name_H-M   'P 1'
_cell_length_a   8.21914597
_cell_length_b   11.48369947
_cell_length_c   8.20866288
_cell_angle_alpha   89.97025177
_cell_angle_beta   89.99984481
_cell_angle_gamma   89.99976460
_symmetry_Int_Tables_number   1
_chemical_formula_structural   CaH10PbC2(Br3N2)2
_chemical_formula_sum   'Ca2 H20 Pb2 C4 Br12 N8'
_cell_volume   774.78440959
_cell_formula_units_Z   2
loop_
 _symmetry_equiv_pos_site_id
 _symmetry_equiv_pos_as_xyz
  1  'x, y, z'
loop_
 _atom_site_type_symbol
 _atom_site_label
 _atom_site_symmetry_multiplicity
 _atom_site_fract_x
 _atom_site_fract_y
 _atom_site_fract_z
 _atom_site_occupancy
  C  C0  1  0.49361439  0.29045110  0.49600866  1
  C  C1  1  0.99366758  0.20954254  0.00399696  1
  C  C2  1  0.50641358  0.79047016  0.50380026  1
  C  C3  1  0.00636639  0.70953451  0.99617667  1
  N  N4  1  0.59664309  0.23860700  0.59409220  1
  N  N5  1  0.39473618  0.23816936  0.39447547  1
  N  N6  1  0.09671036  0.26138280  0.90596013  1
  N  N7  1  0.89476611  0.26182109  0.10553690  1
  N  N8  1  0.60481318  0.73812739  0.60588602  1
  N  N9  1  0.40400738  0.73865425  0.40515042  1
  N  N10  1  0.10476850  0.76188814  0.89412152  1
  N  N11  1  0.90392392  0.76134481  0.09481876  1
  H  H12  1  0.48966482  0.38529248  0.49951482  1
  H  H13  1  0.66910490  0.28792982  0.66779550  1
  H  H14  1  0.60800545  0.15033690  0.60143755  1
  H  H15  1  0.31869789  0.28767833  0.32432061  1
  H  H16  1  0.38985508  0.14996050  0.38039915  1
  H  H17  1  0.98969305  0.11470017  0.00047431  1
  H  H18  1  0.16919094  0.21206361  0.83225850  1
  H  H19  1  0.10810974  0.34965789  0.89864607  1
  H  H20  1  0.81871040  0.21231058  0.17566002  1
  H  H21  1  0.88990187  0.35002695  0.11962664  1
  H  H22  1  0.51026920  0.88530900  0.50038808  1
  H  H23  1  0.67876803  0.78765150  0.67811553  1
  H  H24  1  0.61268804  0.64982636  0.61698320  1
  H  H25  1  0.33341549  0.78798523  0.32955076  1
  H  H26  1  0.38978461  0.65049958  0.40071005  1
  H  H27  1  0.01022802  0.61469788  0.99958765  1
  H  H28  1  0.17875291  0.71237141  0.82189919  1
  H  H29  1  0.11264097  0.85019034  0.88303296  1
  H  H30  1  0.83332459  0.71200453  0.17039282  1
  H  H31  1  0.88968282  0.84949524  0.09925172  1
  Ca  Ca32  1  0.49960902  0.99997247  0.99772566  1
  Ca  Ca33  1  0.99960843  0.50004092  0.50228693  1
  Pb  Pb34  1  0.00074798  0.00005240  0.49745318  1
  Pb  Pb35  1  0.50074363  0.49996088  0.00255174  1
  Br  Br36  1  0.49810363  0.24460955  0.99403215  1
  Br  Br37  1  0.21457135  0.98425759  0.20225278  1
  Br  Br38  1  0.70284876  0.01846211  0.28434755  1
  Br  Br39  1  0.99806148  0.25540279  0.50600777  1
  Br  Br40  1  0.29520451  0.01542798  0.71245353  1
  Br  Br41  1  0.78626189  0.98190764  0.79460032  1
  Br  Br42  1  0.50222523  0.75539504  0.00546367  1
  Br  Br43  1  0.71455662  0.51574684  0.29776287  1
  Br  Br44  1  0.20283096  0.48154232  0.21564629  1
  Br  Br45  1  0.00226760  0.74461825  0.49449211  1
  Br  Br46  1  0.28626681  0.51810868  0.70540395  1
  Br  Br47  1  0.79519198  0.48457606  0.78755517  1
