# generated using pymatgen
data_CaHgH10C2(Br3N2)2
_symmetry_space_group_name_H-M   'P 1'
_cell_length_a   8.17753320
_cell_length_b   11.00899521
_cell_length_c   8.16820327
_cell_angle_alpha   90.04303682
_cell_angle_beta   89.99994997
_cell_angle_gamma   89.99865260
_symmetry_Int_Tables_number   1
_chemical_formula_structural   CaHgH10C2(Br3N2)2
_chemical_formula_sum   'Ca2 Hg2 H20 C4 Br12 N8'
_cell_volume   735.35392289
_cell_formula_units_Z   2
loop_
 _symmetry_equiv_pos_site_id
 _symmetry_equiv_pos_as_xyz
  1  'x, y, z'
loop_
 _atom_site_type_symbol
 _atom_site_label
 _atom_site_symmetry_multiplicity
 _atom_site_fract_x
 _atom_site_fract_y
 _atom_site_fract_z
 _atom_site_occupancy
  C  C0  1  0.49430102  0.29101466  0.49610306  1
  C  C1  1  0.99435642  0.20898006  0.00390160  1
  C  C2  1  0.50581070  0.79100967  0.50391924  1
  C  C3  1  0.00576603  0.70899460  0.99605975  1
  N  N4  1  0.59793817  0.23734412  0.59478941  1
  N  N5  1  0.39430784  0.23651531  0.39459897  1
  N  N6  1  0.09801217  0.26265050  0.90525723  1
  N  N7  1  0.89434687  0.26347913  0.10541480  1
  N  N8  1  0.60441554  0.73641600  0.60667086  1
  N  N9  1  0.40315365  0.73744266  0.40410453  1
  N  N10  1  0.10437177  0.76359640  0.89333538  1
  N  N11  1  0.90307803  0.76255429  0.09586636  1
  H  H12  1  0.49069083  0.38988853  0.49902824  1
  H  H13  1  0.66930437  0.28982270  0.66939323  1
  H  H14  1  0.61207510  0.14540359  0.60131496  1
  H  H15  1  0.31980256  0.28894781  0.32296728  1
  H  H16  1  0.38578354  0.14442248  0.38252984  1
  H  H17  1  0.99072086  0.11010786  0.00095245  1
  H  H18  1  0.16938459  0.21017341  0.83064828  1
  H  H19  1  0.11217809  0.35459170  0.89876471  1
  H  H20  1  0.81982386  0.21104541  0.17701388  1
  H  H21  1  0.88583803  0.35556876  0.11749861  1
  H  H22  1  0.50991439  0.88987149  0.50102117  1
  H  H23  1  0.67951613  0.78878502  0.67783674  1
  H  H24  1  0.61082358  0.64439571  0.62048028  1
  H  H25  1  0.33146695  0.78996713  0.32995344  1
  H  H26  1  0.39044266  0.64543886  0.39578363  1
  H  H27  1  0.00987827  0.61013207  0.99895435  1
  H  H28  1  0.17949891  0.71123464  0.82217471  1
  H  H29  1  0.11077484  0.85561834  0.87953563  1
  H  H30  1  0.83138731  0.71002133  0.16999940  1
  H  H31  1  0.89034712  0.85455502  0.10418564  1
  Ca  Ca32  1  0.49983644  0.99996827  0.99766995  1
  Ca  Ca33  1  0.99983532  0.50004649  0.50233792  1
  Hg  Hg34  1  0.00177900  0.00006674  0.49690369  1
  Hg  Hg35  1  0.50177853  0.49994770  0.00309081  1
  Br  Br36  1  0.49749244  0.26202924  0.99516605  1
  Br  Br37  1  0.21934808  0.98465592  0.20745327  1
  Br  Br38  1  0.70898822  0.01546793  0.27891898  1
  Br  Br39  1  0.99745113  0.23798184  0.50489315  1
  Br  Br40  1  0.29058983  0.01560777  0.71717255  1
  Br  Br41  1  0.78100928  0.98431405  0.78902704  1
  Br  Br42  1  0.50122169  0.73797702  0.00486537  1
  Br  Br43  1  0.71933591  0.51534543  0.29255489  1
  Br  Br44  1  0.20898060  0.48454346  0.22108054  1
  Br  Br45  1  0.00127497  0.76203698  0.49510016  1
  Br  Br46  1  0.28100784  0.51569634  0.71098115  1
  Br  Br47  1  0.79057985  0.48438854  0.78283153  1
