# generated using pymatgen
data_CaH10PtC2(Br3N2)2
_symmetry_space_group_name_H-M   'P 1'
_cell_length_a   8.02827240
_cell_length_b   10.49255518
_cell_length_c   8.67921102
_cell_angle_alpha   90.02773744
_cell_angle_beta   89.99785567
_cell_angle_gamma   89.98905905
_symmetry_Int_Tables_number   1
_chemical_formula_structural   CaH10PtC2(Br3N2)2
_chemical_formula_sum   'Ca2 H20 Pt2 C4 Br12 N8'
_cell_volume   731.11139001
_cell_formula_units_Z   2
loop_
 _symmetry_equiv_pos_site_id
 _symmetry_equiv_pos_as_xyz
  1  'x, y, z'
loop_
 _atom_site_type_symbol
 _atom_site_label
 _atom_site_symmetry_multiplicity
 _atom_site_fract_x
 _atom_site_fract_y
 _atom_site_fract_z
 _atom_site_occupancy
  C  C0  1  0.48405621  0.28974861  0.48484636  1
  C  C1  1  0.98435970  0.21027113  0.01504754  1
  C  C2  1  0.51025878  0.79460498  0.51882899  1
  C  C3  1  0.00999658  0.70539862  0.98116725  1
  N  N4  1  0.56617711  0.24075027  0.60066043  1
  N  N5  1  0.39473927  0.22662708  0.38340369  1
  N  N6  1  0.06668192  0.25933732  0.89940964  1
  N  N7  1  0.89532794  0.27337589  0.11674345  1
  N  N8  1  0.60028752  0.73192283  0.61879712  1
  N  N9  1  0.42894807  0.74522592  0.40154779  1
  N  N10  1  0.09981062  0.76801806  0.88100318  1
  N  N11  1  0.92867628  0.75486528  0.09841643  1
  H  H12  1  0.49259237  0.39263701  0.46955201  1
  H  H13  1  0.63068634  0.30024872  0.67296234  1
  H  H14  1  0.57319106  0.14546681  0.62389592  1
  H  H15  1  0.33955495  0.27578602  0.29561730  1
  H  H16  1  0.36831087  0.13167598  0.39097514  1
  H  H17  1  0.99242790  0.10731780  0.02992417  1
  H  H18  1  0.13095791  0.19983460  0.82690999  1
  H  H19  1  0.07410491  0.35465748  0.87650254  1
  H  H20  1  0.83985218  0.22413484  0.20429950  1
  H  H21  1  0.86925297  0.36840899  0.10950424  1
  H  H22  1  0.50102023  0.89724583  0.53581816  1
  H  H23  1  0.66167168  0.78332725  0.70196498  1
  H  H24  1  0.61412536  0.63523075  0.61809290  1
  H  H25  1  0.35837830  0.80324424  0.33222602  1
  H  H26  1  0.44278482  0.65222561  0.36983613  1
  H  H27  1  0.00093778  0.60272480  0.96439831  1
  H  H28  1  0.16125951  0.71656284  0.79790607  1
  H  H29  1  0.11345279  0.86472815  0.88149668  1
  H  H30  1  0.85836979  0.69686040  0.16795051  1
  H  H31  1  0.94246577  0.84789866  0.12999412  1
  Ca  Ca32  1  0.55573024  0.98528265  0.05425599  1
  Ca  Ca33  1  0.05582808  0.51452636  0.44592212  1
  Pt  Pt34  1  0.00566022  0.01888137  0.49439193  1
  Pt  Pt35  1  0.50576793  0.48109597  0.00567813  1
  Br  Br36  1  0.47602243  0.24870777  0.98650507  1
  Br  Br37  1  0.23900958  0.97500806  0.17377467  1
  Br  Br38  1  0.75272457  0.01514603  0.32473276  1
  Br  Br39  1  0.97569778  0.25124554  0.51389325  1
  Br  Br40  1  0.24159277  0.02551065  0.67306795  1
  Br  Br41  1  0.75290468  0.98747819  0.80058706  1
  Br  Br42  1  0.50869784  0.71577964  0.00468622  1
  Br  Br43  1  0.73920625  0.52495233  0.32614566  1
  Br  Br44  1  0.25279646  0.48504878  0.17533708  1
  Br  Br45  1  0.00883809  0.78418295  0.49494987  1
  Br  Br46  1  0.25310589  0.51255113  0.69946130  1
  Br  Br47  1  0.74171900  0.47430283  0.82701681  1
