# generated using pymatgen
data_CaH10OsC2(Br3N2)2
_symmetry_space_group_name_H-M   'P 1'
_cell_length_a   7.85939654
_cell_length_b   10.76591911
_cell_length_c   7.84897893
_cell_angle_alpha   90.07470490
_cell_angle_beta   89.99999433
_cell_angle_gamma   89.99881417
_symmetry_Int_Tables_number   1
_chemical_formula_structural   CaH10OsC2(Br3N2)2
_chemical_formula_sum   'Ca2 H20 Os2 C4 Br12 N8'
_cell_volume   664.13001422
_cell_formula_units_Z   2
loop_
 _symmetry_equiv_pos_site_id
 _symmetry_equiv_pos_as_xyz
  1  'x, y, z'
loop_
 _atom_site_type_symbol
 _atom_site_label
 _atom_site_symmetry_multiplicity
 _atom_site_fract_x
 _atom_site_fract_y
 _atom_site_fract_z
 _atom_site_occupancy
  C  C0  1  0.49432624  0.29210920  0.49632047  1
  C  C1  1  0.99437762  0.20788536  0.00369432  1
  C  C2  1  0.50592147  0.79214612  0.50394798  1
  C  C3  1  0.00586130  0.70785882  0.99603576  1
  N  N4  1  0.60088875  0.23681315  0.59905858  1
  N  N5  1  0.39170577  0.23595859  0.39044709  1
  N  N6  1  0.10097713  0.26318244  0.90099011  1
  N  N7  1  0.89175249  0.26403620  0.10956093  1
  N  N8  1  0.60872101  0.73600735  0.60948160  1
  N  N9  1  0.39881836  0.73683968  0.40160504  1
  N  N10  1  0.10867945  0.76400706  0.89051948  1
  N  N11  1  0.89873659  0.76315644  0.09835423  1
  H  H12  1  0.49042879  0.39304590  0.49940693  1
  H  H13  1  0.67361919  0.28969974  0.67887762  1
  H  H14  1  0.61938553  0.14309457  0.60110005  1
  H  H15  1  0.31545013  0.28881568  0.31406713  1
  H  H16  1  0.37859317  0.14184155  0.38298944  1
  H  H17  1  0.99046139  0.10695068  0.00057479  1
  H  H18  1  0.17370940  0.21029478  0.82117402  1
  H  H19  1  0.11950225  0.35689643  0.89898912  1
  H  H20  1  0.81547129  0.21117843  0.18591459  1
  H  H21  1  0.87865191  0.35815279  0.11703843  1
  H  H22  1  0.51019187  0.89306535  0.50070323  1
  H  H23  1  0.68910328  0.78882037  0.68178378  1
  H  H24  1  0.61061407  0.64224508  0.62795639  1
  H  H25  1  0.32239377  0.78975153  0.32558051  1
  H  H26  1  0.39062159  0.64277269  0.38897049  1
  H  H27  1  0.01014648  0.60694013  0.99926707  1
  H  H28  1  0.18908124  0.71120071  0.81823222  1
  H  H29  1  0.11056800  0.85776877  0.87206383  1
  H  H30  1  0.82229733  0.71023707  0.17435733  1
  H  H31  1  0.89051294  0.85722372  0.11099142  1
  Ca  Ca32  1  0.49804886  0.99998175  0.99790349  1
  Ca  Ca33  1  0.99805410  0.50003155  0.50211668  1
  Os  Os34  1  0.00014565  0.00000841  0.49847693  1
  Os  Os35  1  0.50013961  0.50000174  0.00152891  1
  Br  Br36  1  0.49856292  0.26163527  0.99660289  1
  Br  Br37  1  0.19776354  0.98787962  0.23429813  1
  Br  Br38  1  0.73672248  0.01096370  0.29957997  1
  Br  Br39  1  0.99851596  0.23837628  0.50345096  1
  Br  Br40  1  0.26441025  0.01263578  0.69554733  1
  Br  Br41  1  0.80214741  0.98842682  0.76244146  1
  Br  Br42  1  0.50143805  0.73838177  0.00455258  1
  Br  Br43  1  0.69775936  0.51211609  0.26570729  1
  Br  Br44  1  0.23670993  0.48905658  0.20042073  1
  Br  Br45  1  0.00148387  0.76162903  0.49540658  1
  Br  Br46  1  0.30214957  0.51158831  0.73756021  1
  Br  Br47  1  0.76439799  0.48735392  0.80445664  1
