# generated using pymatgen
data_SiGeH12C2(I3N)2
_symmetry_space_group_name_H-M   'P 1'
_cell_length_a   8.55160457
_cell_length_b   11.98336510
_cell_length_c   8.34261445
_cell_angle_alpha   90.34452338
_cell_angle_beta   89.98518026
_cell_angle_gamma   90.69488069
_symmetry_Int_Tables_number   1
_chemical_formula_structural   SiGeH12C2(I3N)2
_chemical_formula_sum   'Si2 Ge2 H24 C4 I12 N4'
_cell_volume   854.84775615
_cell_formula_units_Z   2
loop_
 _symmetry_equiv_pos_site_id
 _symmetry_equiv_pos_as_xyz
  1  'x, y, z'
loop_
 _atom_site_type_symbol
 _atom_site_label
 _atom_site_symmetry_multiplicity
 _atom_site_fract_x
 _atom_site_fract_y
 _atom_site_fract_z
 _atom_site_occupancy
  C  C0  1  0.42152460  0.24987084  0.43129625  1
  C  C1  1  0.92105360  0.24881365  0.07210539  1
  C  C2  1  0.58056601  0.75108205  0.57143160  1
  C  C3  1  0.07866815  0.74802589  0.92855689  1
  N  N4  1  0.56318172  0.24805073  0.53421609  1
  N  N5  1  0.06236143  0.24960036  0.96868091  1
  N  N6  1  0.43914170  0.74953242  0.46807435  1
  N  N7  1  0.93742605  0.74943537  0.03196097  1
  H  H8  1  0.45860235  0.25109413  0.30571387  1
  H  H9  1  0.35156832  0.17470105  0.45450416  1
  H  H10  1  0.35445210  0.32453956  0.45968671  1
  H  H11  1  0.62965225  0.17821348  0.50698876  1
  H  H12  1  0.63321697  0.31794741  0.51361613  1
  H  H13  1  0.53557309  0.24598796  0.65598608  1
  H  H14  1  0.95843721  0.24842116  0.19756011  1
  H  H15  1  0.85177860  0.17378799  0.04504641  1
  H  H16  1  0.85357323  0.32374705  0.04754652  1
  H  H17  1  0.13058349  0.18037797  0.99188709  1
  H  H18  1  0.13064551  0.31998545  0.99247144  1
  H  H19  1  0.03453168  0.24920503  0.84664665  1
  H  H20  1  0.54311601  0.75263115  0.69685214  1
  H  H21  1  0.64786028  0.67587592  0.54700820  1
  H  H22  1  0.64974169  0.82594642  0.54442555  1
  H  H23  1  0.37170278  0.81919265  0.49090262  1
  H  H24  1  0.37022117  0.67975731  0.49330112  1
  H  H25  1  0.46658333  0.74827347  0.34606384  1
  H  H26  1  0.04122964  0.74709119  0.80313790  1
  H  H27  1  0.14883926  0.82295515  0.95365906  1
  H  H28  1  0.14537762  0.67307123  0.95489181  1
  H  H29  1  0.87049433  0.81906715  0.00791828  1
  H  H30  1  0.86769516  0.67943796  0.00861862  1
  H  H31  1  0.96535178  0.75023576  0.15378443  1
  Si  Si32  1  0.46396556  0.01375541  0.98440552  1
  Si  Si33  1  0.99063668  0.51461034  0.45558987  1
  Ge  Ge34  1  0.96645419  0.01477435  0.51925734  1
  Ge  Ge35  1  0.51229368  0.51547159  0.97059578  1
  I  I36  1  0.48891728  0.23970149  0.96079493  1
  I  I37  1  0.21478989  0.00914113  0.18468887  1
  I  I38  1  0.70992400  0.01096248  0.31228500  1
  I  I39  1  0.99161937  0.24603000  0.54848217  1
  I  I40  1  0.31087981  0.98694912  0.70600834  1
  I  I41  1  0.80604104  0.98781915  0.80398909  1
  I  I42  1  0.51224098  0.74469734  0.04240258  1
  I  I43  1  0.71218339  0.48904780  0.31186917  1
  I  I44  1  0.18591350  0.48739631  0.20603489  1
  I  I45  1  0.01149455  0.74073706  0.45308189  1
  I  I46  1  0.31254493  0.51193072  0.70639014  1
  I  I47  1  0.79537377  0.51109906  0.80988106  1
