# generated using pymatgen
data_BaCaH10C2(Br3N2)2
_symmetry_space_group_name_H-M   'P 1'
_cell_length_a   8.34635541
_cell_length_b   11.75719067
_cell_length_c   8.34136737
_cell_angle_alpha   89.89952230
_cell_angle_beta   89.99992475
_cell_angle_gamma   89.99927070
_symmetry_Int_Tables_number   1
_chemical_formula_structural   BaCaH10C2(Br3N2)2
_chemical_formula_sum   'Ba2 Ca2 H20 C4 Br12 N8'
_cell_volume   818.53455117
_cell_formula_units_Z   2
loop_
 _symmetry_equiv_pos_site_id
 _symmetry_equiv_pos_as_xyz
  1  'x, y, z'
loop_
 _atom_site_type_symbol
 _atom_site_label
 _atom_site_symmetry_multiplicity
 _atom_site_fract_x
 _atom_site_fract_y
 _atom_site_fract_z
 _atom_site_occupancy
  C  C0  1  0.49447912  0.28887343  0.49670708  1
  C  C1  1  0.99446834  0.21123092  0.00326870  1
  C  C2  1  0.50529089  0.78874533  0.50313262  1
  C  C3  1  0.00520672  0.71115077  0.99688359  1
  N  N4  1  0.59609815  0.23863424  0.59371790  1
  N  N5  1  0.39774484  0.23632814  0.39739220  1
  N  N6  1  0.09612596  0.26147324  0.90630227  1
  N  N7  1  0.89775477  0.26377265  0.10261154  1
  N  N8  1  0.60152279  0.73616636  0.60311752  1
  N  N9  1  0.40462083  0.73851593  0.40533285  1
  N  N10  1  0.10145096  0.76373044  0.89691854  1
  N  N11  1  0.90453516  0.76137598  0.09469154  1
  H  H12  1  0.48986098  0.38156628  0.49895492  1
  H  H13  1  0.66894300  0.28655902  0.66485171  1
  H  H14  1  0.60389167  0.15233658  0.60380140  1
  H  H15  1  0.32076564  0.28287241  0.32841920  1
  H  H16  1  0.39814794  0.15014358  0.38296725  1
  H  H17  1  0.98977628  0.11854130  0.00096502  1
  H  H18  1  0.16893959  0.21354562  0.83515194  1
  H  H19  1  0.10398977  0.34775546  0.89628737  1
  H  H20  1  0.82074453  0.21724423  0.17156332  1
  H  H21  1  0.89822412  0.34996928  0.11710719  1
  H  H22  1  0.50937602  0.88145507  0.50103546  1
  H  H23  1  0.67375804  0.78272054  0.67674587  1
  H  H24  1  0.61027846  0.64966289  0.60869141  1
  H  H25  1  0.33630368  0.78641220  0.32951739  1
  H  H26  1  0.38864370  0.65250951  0.40382758  1
  H  H27  1  0.00926566  0.61844089  0.99896631  1
  H  H28  1  0.17367078  0.71717528  0.82329070  1
  H  H29  1  0.11021621  0.85022431  0.89137245  1
  H  H30  1  0.83620529  0.71347206  0.17050555  1
  H  H31  1  0.88857411  0.84739413  0.09622360  1
  Ca  Ca32  1  0.49985515  0.99999770  0.99748122  1
  Ca  Ca33  1  0.99987536  0.50001290  0.50249479  1
  Ba  Ba34  1  0.00072028  0.00002967  0.49704037  1
  Ba  Ba35  1  0.50073469  0.49998219  0.00293160  1
  Br  Br36  1  0.49857713  0.23793154  0.99495702  1
  Br  Br37  1  0.21362160  0.98484163  0.18723494  1
  Br  Br38  1  0.68956216  0.01819258  0.28452414  1
  Br  Br39  1  0.99857066  0.26208300  0.50503308  1
  Br  Br40  1  0.30990433  0.01459397  0.71139028  1
  Br  Br41  1  0.78655755  0.98238482  0.80752241  1
  Br  Br42  1  0.50170406  0.76210207  0.00398805  1
  Br  Br43  1  0.71370374  0.51518697  0.31267052  1
  Br  Br44  1  0.18963247  0.48181730  0.21550096  1
  Br  Br45  1  0.00178420  0.73790477  0.49599113  1
  Br  Br46  1  0.28650846  0.51759297  0.69251945  1
  Br  Br47  1  0.80983349  0.48541082  0.78850282  1
