# generated using pymatgen
data_CaSnH10C2(Br3N2)2
_symmetry_space_group_name_H-M   'P 1'
_cell_length_a   8.18174169
_cell_length_b   11.41196043
_cell_length_c   8.17106714
_cell_angle_alpha   90.00725548
_cell_angle_beta   89.99997340
_cell_angle_gamma   89.99897442
_symmetry_Int_Tables_number   1
_chemical_formula_structural   CaSnH10C2(Br3N2)2
_chemical_formula_sum   'Ca2 Sn2 H20 C4 Br12 N8'
_cell_volume   762.93018234
_cell_formula_units_Z   2
loop_
 _symmetry_equiv_pos_site_id
 _symmetry_equiv_pos_as_xyz
  1  'x, y, z'
loop_
 _atom_site_type_symbol
 _atom_site_label
 _atom_site_symmetry_multiplicity
 _atom_site_fract_x
 _atom_site_fract_y
 _atom_site_fract_z
 _atom_site_occupancy
  C  C0  1  0.49338037  0.29107165  0.49619816  1
  C  C1  1  0.99343362  0.20891632  0.00381999  1
  C  C2  1  0.50670800  0.79107785  0.50368729  1
  C  C3  1  0.00664679  0.70892960  0.99628860  1
  N  N4  1  0.59667695  0.23873987  0.59468325  1
  N  N5  1  0.39405008  0.23839801  0.39409986  1
  N  N6  1  0.09676500  0.26125122  0.90537201  1
  N  N7  1  0.89408708  0.26158997  0.10590629  1
  N  N8  1  0.60563693  0.73839904  0.60613488  1
  N  N9  1  0.40375973  0.73875945  0.40480701  1
  N  N10  1  0.10559509  0.76161666  0.89386956  1
  N  N11  1  0.90366758  0.76123861  0.09514582  1
  H  H12  1  0.48943980  0.38648680  0.49980640  1
  H  H13  1  0.66896122  0.28815931  0.66959727  1
  H  H14  1  0.60880046  0.14992864  0.60063917  1
  H  H15  1  0.31835162  0.28812412  0.32284785  1
  H  H16  1  0.38837662  0.14956749  0.38115267  1
  H  H17  1  0.98947942  0.11350397  0.00018709  1
  H  H18  1  0.16906591  0.21182968  0.83047327  1
  H  H19  1  0.10892007  0.35005886  0.89945793  1
  H  H20  1  0.81836373  0.21186337  0.17712813  1
  H  H21  1  0.88842366  0.35041895  0.11887028  1
  H  H22  1  0.51065950  0.88649789  0.50011723  1
  H  H23  1  0.68080473  0.78811174  0.67797929  1
  H  H24  1  0.61223546  0.64953472  0.61811392  1
  H  H25  1  0.33193717  0.78819053  0.32947524  1
  H  H26  1  0.39066495  0.64998175  0.39978155  1
  H  H27  1  0.01060878  0.61350898  0.99984807  1
  H  H28  1  0.18078860  0.71191181  0.82204002  1
  H  H29  1  0.11218842  0.85048203  0.88190657  1
  H  H30  1  0.83182451  0.71180071  0.17044799  1
  H  H31  1  0.89054521  0.85001541  0.10016573  1
  Ca  Ca32  1  0.49971226  0.99995945  0.99811843  1
  Ca  Ca33  1  0.99971109  0.50005846  0.50189737  1
  Sn  Sn34  1  0.00103187  0.00006540  0.49793182  1
  Sn  Sn35  1  0.50102734  0.49995194  0.00207407  1
  Br  Br36  1  0.49793123  0.24715019  0.99389459  1
  Br  Br37  1  0.21189330  0.98422244  0.20371429  1
  Br  Br38  1  0.70343140  0.01929314  0.28735327  1
  Br  Br39  1  0.99789201  0.25286658  0.50615620  1
  Br  Br40  1  0.29420916  0.01562131  0.70992056  1
  Br  Br41  1  0.78917472  0.98091686  0.79449380  1
  Br  Br42  1  0.50222863  0.75283281  0.00577658  1
  Br  Br43  1  0.71187547  0.51577480  0.29630560  1
  Br  Br44  1  0.20340937  0.48071696  0.21264190  1
  Br  Br45  1  0.00227079  0.74718477  0.49417415  1
  Br  Br46  1  0.28918122  0.51910478  0.70551141  1
  Br  Br47  1  0.79419242  0.48437809  0.79009235  1
