# generated using pymatgen
data_CaCdH10C2(Br3N2)2
_symmetry_space_group_name_H-M   'P 1'
_cell_length_a   8.08524684
_cell_length_b   11.05481211
_cell_length_c   8.07527049
_cell_angle_alpha   90.04420895
_cell_angle_beta   89.99975080
_cell_angle_gamma   89.99911675
_symmetry_Int_Tables_number   1
_chemical_formula_structural   CaCdH10C2(Br3N2)2
_chemical_formula_sum   'Ca2 Cd2 H20 C4 Br12 N8'
_cell_volume   721.77460640
_cell_formula_units_Z   2
loop_
 _symmetry_equiv_pos_site_id
 _symmetry_equiv_pos_as_xyz
  1  'x, y, z'
loop_
 _atom_site_type_symbol
 _atom_site_label
 _atom_site_symmetry_multiplicity
 _atom_site_fract_x
 _atom_site_fract_y
 _atom_site_fract_z
 _atom_site_occupancy
  C  C0  1  0.49438221  0.29082525  0.49626578  1
  C  C1  1  0.99445156  0.20916705  0.00372732  1
  C  C2  1  0.50570507  0.79083969  0.50380148  1
  C  C3  1  0.00567494  0.70917939  0.99616548  1
  N  N4  1  0.59867634  0.23724041  0.59625579  1
  N  N5  1  0.39382530  0.23639571  0.39335358  1
  N  N6  1  0.09874454  0.26274426  0.90379893  1
  N  N7  1  0.89385975  0.26359652  0.10666437  1
  N  N8  1  0.60571584  0.73637462  0.60716552  1
  N  N9  1  0.40164988  0.73729309  0.40347772  1
  N  N10  1  0.10567443  0.76364028  0.89284397  1
  N  N11  1  0.90157434  0.76270955  0.09649508  1
  H  H12  1  0.49069643  0.38925765  0.49915938  1
  H  H13  1  0.67031572  0.28912654  0.67247281  1
  H  H14  1  0.61366308  0.14572845  0.60195293  1
  H  H15  1  0.31886676  0.28825993  0.32019412  1
  H  H16  1  0.38436201  0.14469006  0.38217088  1
  H  H17  1  0.99072652  0.11073338  0.00082576  1
  H  H18  1  0.17040259  0.21086417  0.82756913  1
  H  H19  1  0.11376920  0.35426577  0.89812335  1
  H  H20  1  0.81889010  0.21173004  0.17978490  1
  H  H21  1  0.88441886  0.35529573  0.11785225  1
  H  H22  1  0.50977205  0.88925530  0.50087506  1
  H  H23  1  0.68246913  0.78818159  0.67859357  1
  H  H24  1  0.61136441  0.64479648  0.62190087  1
  H  H25  1  0.32847884  0.78921642  0.32888320  1
  H  H26  1  0.38992299  0.64565904  0.39423654  1
  H  H27  1  0.00973895  0.61075163  0.99909945  1
  H  H28  1  0.18246102  0.71184630  0.82141256  1
  H  H29  1  0.11132561  0.85522888  0.87811042  1
  H  H30  1  0.82840355  0.71077779  0.17106193  1
  H  H31  1  0.88983079  0.85433962  0.10573210  1
  Ca  Ca32  1  0.49943029  0.99997257  0.99772731  1
  Ca  Ca33  1  0.99943145  0.50003854  0.50228555  1
  Cd  Cd34  1  0.00105964  0.00004506  0.49763305  1
  Cd  Cd35  1  0.50105539  0.49996675  0.00237154  1
  Br  Br36  1  0.49815708  0.25699953  0.99610985  1
  Br  Br37  1  0.21467655  0.98614408  0.21624076  1
  Br  Br38  1  0.71815571  0.01360411  0.28319433  1
  Br  Br39  1  0.99812488  0.24300729  0.50394249  1
  Br  Br40  1  0.28190727  0.01408528  0.71249180  1
  Br  Br41  1  0.78542962  0.98617672  0.78003666  1
  Br  Br42  1  0.50129196  0.74299781  0.00429824  1
  Br  Br43  1  0.71466368  0.51385363  0.28376982  1
  Br  Br44  1  0.21815101  0.48640347  0.21680917  1
  Br  Br45  1  0.00134899  0.75701509  0.49567902  1
  Br  Br46  1  0.28542575  0.51383417  0.71997443  1
  Br  Br47  1  0.78189726  0.48590831  0.78751452  1
