# generated using pymatgen
data_CaH10RuC2(Br3N2)2
_symmetry_space_group_name_H-M   'P 1'
_cell_length_a   7.87436881
_cell_length_b   10.79313823
_cell_length_c   7.86390845
_cell_angle_alpha   90.10303580
_cell_angle_beta   90.00017179
_cell_angle_gamma   89.99823661
_symmetry_Int_Tables_number   1
_chemical_formula_structural   CaH10RuC2(Br3N2)2
_chemical_formula_sum   'Ca2 H20 Ru2 C4 Br12 N8'
_cell_volume   668.34582174
_cell_formula_units_Z   2
loop_
 _symmetry_equiv_pos_site_id
 _symmetry_equiv_pos_as_xyz
  1  'x, y, z'
loop_
 _atom_site_type_symbol
 _atom_site_label
 _atom_site_symmetry_multiplicity
 _atom_site_fract_x
 _atom_site_fract_y
 _atom_site_fract_z
 _atom_site_occupancy
  C  C0  1  0.49460767  0.29191206  0.49639547  1
  C  C1  1  0.99465255  0.20807878  0.00362209  1
  C  C2  1  0.50572550  0.79192699  0.50393962  1
  C  C3  1  0.00566804  0.70808581  0.99604518  1
  N  N4  1  0.60074986  0.23677180  0.59899728  1
  N  N5  1  0.39211342  0.23586101  0.39067466  1
  N  N6  1  0.10083521  0.26321936  0.90104880  1
  N  N7  1  0.89216122  0.26412819  0.10933172  1
  N  N8  1  0.60839916  0.73589542  0.60916264  1
  N  N9  1  0.39880914  0.73680448  0.40179562  1
  N  N10  1  0.10835943  0.76412308  0.89083908  1
  N  N11  1  0.89872925  0.76319879  0.09816881  1
  H  H12  1  0.49083692  0.39257465  0.49926978  1
  H  H13  1  0.67310688  0.28958810  0.67885863  1
  H  H14  1  0.61927064  0.14328216  0.60125729  1
  H  H15  1  0.31638091  0.28858533  0.31415155  1
  H  H16  1  0.37882640  0.14196909  0.38327600  1
  H  H17  1  0.99086744  0.10741840  0.00070925  1
  H  H18  1  0.17319251  0.21040124  0.82118705  1
  H  H19  1  0.11938126  0.35670672  0.89882793  1
  H  H20  1  0.81640321  0.21140605  0.18582886  1
  H  H21  1  0.87888424  0.35802228  0.11675225  1
  H  H22  1  0.50995026  0.89260311  0.50089149  1
  H  H23  1  0.68882435  0.78855516  0.68109958  1
  H  H24  1  0.61034441  0.64237457  0.62754940  1
  H  H25  1  0.32228823  0.78967239  0.32628696  1
  H  H26  1  0.39055637  0.64297901  0.38884382  1
  H  H27  1  0.00990898  0.60740354  0.99907932  1
  H  H28  1  0.18880444  0.71146878  0.81891454  1
  H  H29  1  0.11029858  0.85764307  0.87247183  1
  H  H30  1  0.82220058  0.71032260  0.17365372  1
  H  H31  1  0.89045440  0.85701938  0.11112282  1
  Ca  Ca32  1  0.49819403  0.99998438  0.99783162  1
  Ca  Ca33  1  0.99819794  0.50002790  0.50218633  1
  Ru  Ru34  1  0.00016023  0.00000474  0.49832978  1
  Ru  Ru35  1  0.50015476  0.50000475  0.00167594  1
  Br  Br36  1  0.49867095  0.26145295  0.99691350  1
  Br  Br37  1  0.20019540  0.98774762  0.23411357  1
  Br  Br38  1  0.73661066  0.01076669  0.29701686  1
  Br  Br39  1  0.99862556  0.23855779  0.50313752  1
  Br  Br40  1  0.26438291  0.01265052  0.69784973  1
  Br  Br41  1  0.79969324  0.98873620  0.76229570  1
  Br  Br42  1  0.50131980  0.73856191  0.00430755  1
  Br  Br43  1  0.70019307  0.51224912  0.26589083  1
  Br  Br44  1  0.23660026  0.48925288  0.20298548  1
  Br  Br45  1  0.00136697  0.76144847  0.49565472  1
  Br  Br46  1  0.29969242  0.51127603  0.73770815  1
  Br  Br47  1  0.76436970  0.48733963  0.80215443  1
