# generated using pymatgen
data_SrCaH10C2(Br3N2)2
_symmetry_space_group_name_H-M   'P 1'
_cell_length_a   8.21154955
_cell_length_b   11.48772875
_cell_length_c   8.20043875
_cell_angle_alpha   89.98120673
_cell_angle_beta   90.00009531
_cell_angle_gamma   89.99888375
_symmetry_Int_Tables_number   1
_chemical_formula_structural   SrCaH10C2(Br3N2)2
_chemical_formula_sum   'Sr2 Ca2 H20 C4 Br12 N8'
_cell_volume   773.56418817
_cell_formula_units_Z   2
loop_
 _symmetry_equiv_pos_site_id
 _symmetry_equiv_pos_as_xyz
  1  'x, y, z'
loop_
 _atom_site_type_symbol
 _atom_site_label
 _atom_site_symmetry_multiplicity
 _atom_site_fract_x
 _atom_site_fract_y
 _atom_site_fract_z
 _atom_site_occupancy
  C  C0  1  0.49325062  0.29103630  0.49621436  1
  C  C1  1  0.99330698  0.20895258  0.00380262  1
  C  C2  1  0.50672821  0.79103799  0.50372139  1
  C  C3  1  0.00666204  0.70896977  0.99625568  1
  N  N4  1  0.59616622  0.23897435  0.59435900  1
  N  N5  1  0.39430122  0.23864850  0.39449207  1
  N  N6  1  0.09625410  0.26101411  0.90569905  1
  N  N7  1  0.89433770  0.26133943  0.10551413  1
  N  N8  1  0.60536749  0.73864693  0.60577143  1
  N  N9  1  0.40420449  0.73898222  0.40520941  1
  N  N10  1  0.10532317  0.76136898  0.89423645  1
  N  N11  1  0.90410920  0.76101906  0.09474165  1
  H  H12  1  0.48936637  0.38584767  0.49979693  1
  H  H13  1  0.66880757  0.28785471  0.66864995  1
  H  H14  1  0.60692168  0.15068104  0.60111182  1
  H  H15  1  0.31826654  0.28784802  0.32385479  1
  H  H16  1  0.38982876  0.15044131  0.38081607  1
  H  H17  1  0.98940868  0.11414201  0.00019813  1
  H  H18  1  0.16891579  0.21213336  0.83142393  1
  H  H19  1  0.10704221  0.34930772  0.89898596  1
  H  H20  1  0.81827770  0.21213889  0.17611767  1
  H  H21  1  0.88987343  0.34954408  0.11920470  1
  H  H22  1  0.51049201  0.88585693  0.50018770  1
  H  H23  1  0.67992177  0.78784849  0.67792228  1
  H  H24  1  0.61293235  0.65032900  0.61638795  1
  H  H25  1  0.33290617  0.78786914  0.32957146  1
  H  H26  1  0.39048662  0.65080509  0.40145399  1
  H  H27  1  0.01043642  0.61415087  0.99977488  1
  H  H28  1  0.17990509  0.71217364  0.82209723  1
  H  H29  1  0.11288550  0.84968784  0.88363468  1
  H  H30  1  0.83278737  0.71212322  0.17034744  1
  H  H31  1  0.89036376  0.84919230  0.09849254  1
  Ca  Ca32  1  0.49959903  0.99994608  0.99812635  1
  Ca  Ca33  1  0.99959754  0.50007111  0.50189097  1
  Sr  Sr34  1  0.00046200  0.00007727  0.49791371  1
  Sr  Sr35  1  0.50045539  0.49994006  0.00209591  1
  Br  Br36  1  0.49802342  0.24425640  0.99375556  1
  Br  Br37  1  0.21262520  0.98437119  0.20005658  1
  Br  Br38  1  0.70022669  0.01983191  0.28734225  1
  Br  Br39  1  0.99799026  0.25575985  0.50629420  1
  Br  Br40  1  0.29800921  0.01539783  0.71079791  1
  Br  Br41  1  0.78897081  0.98042853  0.79785653  1
  Br  Br42  1  0.50219675  0.75570400  0.00605563  1
  Br  Br43  1  0.71260556  0.51562514  0.29996272  1
  Br  Br44  1  0.20021032  0.48017885  0.21265310  1
  Br  Br45  1  0.00223746  0.74431263  0.49389434  1
  Br  Br46  1  0.28897703  0.51959425  0.70214777  1
  Br  Br47  1  0.79799544  0.48460235  0.78921388  1
