# generated using pymatgen
data_CaGeH10C2(Br3N2)2
_symmetry_space_group_name_H-M   'P 1'
_cell_length_a   8.08992940
_cell_length_b   11.15487431
_cell_length_c   8.08044745
_cell_angle_alpha   90.07017424
_cell_angle_beta   90.00008922
_cell_angle_gamma   89.99782928
_symmetry_Int_Tables_number   1
_chemical_formula_structural   CaGeH10C2(Br3N2)2
_chemical_formula_sum   'Ca2 Ge2 H20 C4 Br12 N8'
_cell_volume   729.19636780
_cell_formula_units_Z   2
loop_
 _symmetry_equiv_pos_site_id
 _symmetry_equiv_pos_as_xyz
  1  'x, y, z'
loop_
 _atom_site_type_symbol
 _atom_site_label
 _atom_site_symmetry_multiplicity
 _atom_site_fract_x
 _atom_site_fract_y
 _atom_site_fract_z
 _atom_site_occupancy
  C  C0  1  0.49417924  0.29057821  0.49624479  1
  C  C1  1  0.99422735  0.20941510  0.00376468  1
  C  C2  1  0.50598906  0.79058269  0.50368655  1
  C  C3  1  0.00594091  0.70942408  0.99629613  1
  N  N4  1  0.59842923  0.23746950  0.59611916  1
  N  N5  1  0.39391105  0.23681045  0.39300609  1
  N  N6  1  0.09850372  0.26252299  0.90392749  1
  N  N7  1  0.89395028  0.26318076  0.10700327  1
  N  N8  1  0.60598841  0.73678717  0.60702094  1
  N  N9  1  0.40166908  0.73750625  0.40371080  1
  N  N10  1  0.10594903  0.76322878  0.89298408  1
  N  N11  1  0.90159310  0.76249185  0.09625742  1
  H  H12  1  0.49025729  0.38816075  0.49958244  1
  H  H13  1  0.66959906  0.28895473  0.67263976  1
  H  H14  1  0.61423158  0.14682307  0.60140496  1
  H  H15  1  0.31921248  0.28837711  0.32002499  1
  H  H16  1  0.38424473  0.14594650  0.38143196  1
  H  H17  1  0.99028286  0.11183319  0.00039948  1
  H  H18  1  0.16967973  0.21103827  0.82740599  1
  H  H19  1  0.11433498  0.35316830  0.89867655  1
  H  H20  1  0.81923056  0.21161498  0.17995794  1
  H  H21  1  0.88429951  0.35404430  0.11859602  1
  H  H22  1  0.51032381  0.88815100  0.50040108  1
  H  H23  1  0.68288351  0.78828640  0.67794828  1
  H  H24  1  0.61134340  0.64607830  0.62255242  1
  H  H25  1  0.32856340  0.78905323  0.32929003  1
  H  H26  1  0.38961707  0.64671596  0.39427738  1
  H  H27  1  0.01028682  0.61185590  0.99957598  1
  H  H28  1  0.18286548  0.71173688  0.82206683  1
  H  H29  1  0.11129663  0.85393806  0.87746593  1
  H  H30  1  0.82847887  0.71093719  0.17065637  1
  H  H31  1  0.88951853  0.85328150  0.10569048  1
  Ca  Ca32  1  0.49966463  -0.00000257  0.99788896  1
  Ca  Ca33  1  0.99966342  0.50001481  0.50211855  1
  Ge  Ge34  1  0.00188856  0.00001178  0.49795441  1
  Ge  Ge35  1  0.50188950  0.49999929  0.00204113  1
  Br  Br36  1  0.49814601  0.25406355  0.99598590  1
  Br  Br37  1  0.21424737  0.98647604  0.21910459  1
  Br  Br38  1  0.72035339  0.01316043  0.28291409  1
  Br  Br39  1  0.99810638  0.24594779  0.50406105  1
  Br  Br40  1  0.27865684  0.01364275  0.71200011  1
  Br  Br41  1  0.78521769  0.98674256  0.77746760  1
  Br  Br42  1  0.50140928  0.74594191  0.00394388  1
  Br  Br43  1  0.71423894  0.51352806  0.28090216  1
  Br  Br44  1  0.22034169  0.48684788  0.21708657  1
  Br  Br45  1  0.00145628  0.75407060  0.49602490  1
  Br  Br46  1  0.28521696  0.51326847  0.72254019  1
  Br  Br47  1  0.77864168  0.48635617  0.78800440  1
