# generated using pymatgen
data_CaGaH10C2(Br3N2)2
_symmetry_space_group_name_H-M   'P 1'
_cell_length_a   8.13886149
_cell_length_b   10.91303665
_cell_length_c   8.64310506
_cell_angle_alpha   88.81967180
_cell_angle_beta   90.04682965
_cell_angle_gamma   90.62802313
_symmetry_Int_Tables_number   1
_chemical_formula_structural   CaGaH10C2(Br3N2)2
_chemical_formula_sum   'Ca2 Ga2 H20 C4 Br12 N8'
_cell_volume   767.46881447
_cell_formula_units_Z   2
loop_
 _symmetry_equiv_pos_site_id
 _symmetry_equiv_pos_as_xyz
  1  'x, y, z'
loop_
 _atom_site_type_symbol
 _atom_site_label
 _atom_site_symmetry_multiplicity
 _atom_site_fract_x
 _atom_site_fract_y
 _atom_site_fract_z
 _atom_site_occupancy
  C  C0  1  0.49266553  0.29930124  0.48758504  1
  C  C1  1  0.95349469  0.28748527  0.99803211  1
  C  C2  1  0.52217293  0.70798122  0.49145949  1
  C  C3  1  0.99687403  0.69785628  1.00018823  1
  N  N4  1  0.59996945  0.24685845  0.58017480  1
  N  N5  1  0.40612942  0.24255642  0.38230902  1
  N  N6  1  0.08788437  0.28617366  0.91362492  1
  N  N7  1  0.91976131  0.21051385  0.11205668  1
  N  N8  1  0.55808984  0.78590983  0.59988653  1
  N  N9  1  0.42101459  0.72858748  0.37568329  1
  N  N10  1  0.10995694  0.75257346  0.91446560  1
  N  N11  1  0.91475771  0.74949668  0.11153762  1
  H  H12  1  0.47148203  0.39693738  0.50147675  1
  H  H13  1  0.65964503  0.29950412  0.65951240  1
  H  H14  1  0.63080838  0.15701905  0.56976553  1
  H  H15  1  0.33034893  0.29376004  0.31249552  1
  H  H16  1  0.42269515  0.15165358  0.36093033  1
  H  H17  1  -0.00186813  0.14084731  0.14398308  1
  H  H18  1  0.18462431  0.22996282  0.93855433  1
  H  H19  1  0.11175390  0.35694386  0.83636635  1
  H  H20  1  0.80949589  0.21503122  0.16724280  1
  H  H21  1  0.86236285  0.35697480  0.96885839  1
  H  H22  1  0.50070067  0.86831427  0.60751347  1
  H  H23  1  0.62866904  0.75880057  0.69170766  1
  H  H24  1  0.58482424  0.62002722  0.49605288  1
  H  H25  1  0.35546962  0.80744753  0.36287093  1
  H  H26  1  0.39495422  0.65922912  0.30132549  1
  H  H27  1  0.96708651  0.60258735  0.97527233  1
  H  H28  1  0.17301317  0.70190567  0.83601619  1
  H  H29  1  0.15077686  0.83908329  0.93813076  1
  H  H30  1  0.82655938  0.69822586  0.16811274  1
  H  H31  1  0.93579521  0.83804259  0.14296153  1
  Ca  Ca32  1  0.49968006  0.99752469  0.05294162  1
  Ca  Ca33  1  0.99573831  0.48797565  0.48535044  1
  Ga  Ga34  1  0.02722821  0.00392403  0.62104638  1
  Ga  Ga35  1  0.48939418  0.49908068  0.98913524  1
  Br  Br36  1  0.51343978  0.24028378  0.96927706  1
  Br  Br37  1  0.18866378  0.98858358  0.18007567  1
  Br  Br38  1  0.66567056  0.00345453  0.32957701  1
  Br  Br39  1  1.00154835  0.19679807  0.48760119  1
  Br  Br40  1  0.30151473  0.01964669  0.71835353  1
  Br  Br41  1  0.82778401  0.00239713  0.81939122  1
  Br  Br42  1  0.52398590  0.75837635  0.97507381  1
  Br  Br43  1  0.73694091  0.49261034  0.26702765  1
  Br  Br44  1  0.21119144  0.48516630  0.22954228  1
  Br  Br45  1  0.00768661  0.81179191  0.50118406  1
  Br  Br46  1  0.25560575  0.51852343  0.69702174  1
  Br  Br47  1  0.77197865  0.50633432  0.73135306  1
