# generated using pymatgen
data_CaZnH10C2(Br3N2)2
_symmetry_space_group_name_H-M   'P 1'
_cell_length_a   8.05413356
_cell_length_b   10.74918177
_cell_length_c   8.04613055
_cell_angle_alpha   90.16698523
_cell_angle_beta   89.99980761
_cell_angle_gamma   89.99714888
_symmetry_Int_Tables_number   1
_chemical_formula_structural   CaZnH10C2(Br3N2)2
_chemical_formula_sum   'Ca2 Zn2 H20 C4 Br12 N8'
_cell_volume   696.59357384
_cell_formula_units_Z   2
loop_
 _symmetry_equiv_pos_site_id
 _symmetry_equiv_pos_as_xyz
  1  'x, y, z'
loop_
 _atom_site_type_symbol
 _atom_site_label
 _atom_site_symmetry_multiplicity
 _atom_site_fract_x
 _atom_site_fract_y
 _atom_site_fract_z
 _atom_site_occupancy
  C  C0  1  0.49446980  0.29162180  0.49648298  1
  C  C1  1  0.99451972  0.20836775  0.00352819  1
  C  C2  1  0.50570052  0.79160165  0.50382758  1
  C  C3  1  0.00565453  0.70840983  0.99614999  1
  N  N4  1  0.59892159  0.23665121  0.59692704  1
  N  N5  1  0.39364334  0.23581779  0.39297999  1
  N  N6  1  0.09900540  0.26334786  0.90311904  1
  N  N7  1  0.89368301  0.26417694  0.10703112  1
  N  N8  1  0.60609420  0.73575445  0.60737884  1
  N  N9  1  0.40092491  0.73673501  0.40336076  1
  N  N10  1  0.10605021  0.76425719  0.89263069  1
  N  N11  1  0.90085048  0.76326058  0.09660319  1
  H  H12  1  0.49071884  0.39279227  0.49960425  1
  H  H13  1  0.66958829  0.29063220  0.67422018  1
  H  H14  1  0.61636187  0.14271238  0.60142526  1
  H  H15  1  0.31973796  0.28976467  0.31896041  1
  H  H16  1  0.38189442  0.14154314  0.38261887  1
  H  H17  1  0.99074827  0.10720345  0.00037612  1
  H  H18  1  0.16967620  0.20936163  0.82582264  1
  H  H19  1  0.11646985  0.35727906  0.89865971  1
  H  H20  1  0.81975793  0.21022851  0.18102072  1
  H  H21  1  0.88194891  0.35844788  0.11740863  1
  H  H22  1  0.51029678  0.89275387  0.50081098  1
  H  H23  1  0.68393088  0.78962316  0.67772821  1
  H  H24  1  0.61044636  0.64174288  0.62440545  1
  H  H25  1  0.32694726  0.79075326  0.32967236  1
  H  H26  1  0.38985288  0.64253076  0.39165759  1
  H  H27  1  0.01025954  0.60725259  0.99916007  1
  H  H28  1  0.18391435  0.71039676  0.82228578  1
  H  H29  1  0.11040130  0.85827498  0.87561556  1
  H  H30  1  0.82686734  0.70923979  0.17026792  1
  H  H31  1  0.88975679  0.85746775  0.10830643  1
  Ca  Ca32  1  0.49976840  0.99999572  0.99809142  1
  Ca  Ca33  1  0.99977025  0.50001676  0.50191991  1
  Zn  Zn34  1  0.00524122  0.00001643  0.49783932  1
  Zn  Zn35  1  0.50526064  0.49999387  0.00216295  1
  Br  Br36  1  0.49752130  0.27269020  0.99705210  1
  Br  Br37  1  0.21495964  0.98722692  0.21956272  1
  Br  Br38  1  0.72064574  0.01139702  0.28108770  1
  Br  Br39  1  0.99748664  0.22731916  0.50299890  1
  Br  Br40  1  0.27872827  0.01315164  0.71313765  1
  Br  Br41  1  0.78327496  0.98823333  0.77747762  1
  Br  Br42  1  0.50032416  0.72736690  0.00377136  1
  Br  Br43  1  0.71495021  0.51277522  0.28044066  1
  Br  Br44  1  0.22063647  0.48862050  0.21891580  1
  Br  Br45  1  0.00036692  0.77264276  0.49619848  1
  Br  Br46  1  0.28327388  0.51177343  0.72253393  1
  Br  Br47  1  0.77871692  0.48684006  0.78686769  1
