# generated using pymatgen
data_CaScH10C2(Br3N2)2
_symmetry_space_group_name_H-M   'P 1'
_cell_length_a   9.38605428
_cell_length_b   8.62939265
_cell_length_c   9.13972039
_cell_angle_alpha   89.62196694
_cell_angle_beta   84.73619359
_cell_angle_gamma   90.48034380
_symmetry_Int_Tables_number   1
_chemical_formula_structural   CaScH10C2(Br3N2)2
_chemical_formula_sum   'Ca2 Sc2 H20 C4 Br12 N8'
_cell_volume   737.11236326
_cell_formula_units_Z   2
loop_
 _symmetry_equiv_pos_site_id
 _symmetry_equiv_pos_as_xyz
  1  'x, y, z'
loop_
 _atom_site_type_symbol
 _atom_site_label
 _atom_site_symmetry_multiplicity
 _atom_site_fract_x
 _atom_site_fract_y
 _atom_site_fract_z
 _atom_site_occupancy
  C  C0  1  0.54668067  0.24783066  0.45915963  1
  C  C1  1  0.93638913  0.26921311  0.02636616  1
  C  C2  1  0.43755132  0.75019190  0.51520075  1
  C  C3  1  0.00079510  0.80639636  0.03711874  1
  N  N4  1  0.54379001  0.25161632  0.60523605  1
  N  N5  1  0.43414120  0.23739589  0.38585020  1
  N  N6  1  0.05730044  0.24664167  0.94396117  1
  N  N7  1  0.92788070  0.34540005  0.14997567  1
  N  N8  1  0.56295318  0.79398958  0.56115879  1
  N  N9  1  0.37970541  0.81058799  0.40479710  1
  N  N10  1  0.37219807  0.71467131  0.87354653  1
  N  N11  1  0.95532425  0.67972770  0.98565068  1
  H  H12  1  0.33168915  0.23900985  0.43487738  1
  H  H13  1  0.63951008  0.27990916  0.64453285  1
  H  H14  1  0.65146412  0.24772859  0.39759772  1
  H  H15  1  0.44565921  0.23891477  0.27323896  1
  H  H16  1  0.43252301  0.88350936  0.32829268  1
  H  H17  1  0.15476611  0.27973039  0.97701602  1
  H  H18  1  0.06138875  0.17518877  0.85428816  1
  H  H19  1  0.83793131  0.22331059  0.98674944  1
  H  H20  1  0.82926890  0.37536906  0.20034724  1
  H  H21  1  0.01754613  0.39001328  0.19153862  1
  H  H22  1  0.63514725  0.85727973  0.49063031  1
  H  H23  1  0.60890326  0.71600328  0.62865638  1
  H  H24  1  0.45301630  0.29332480  0.66430559  1
  H  H25  1  0.28140777  0.77073028  0.38103885  1
  H  H26  1  0.37570376  0.65990112  0.57807475  1
  H  H27  1  0.34065723  0.63576541  0.79804633  1
  H  H28  1  0.27737037  0.74659434  0.93055136  1
  H  H29  1  0.08204603  0.87561681  0.97101042  1
  H  H30  1  0.87628877  0.63050563  0.05837423  1
  H  H31  1  0.96110713  0.85180467  0.14485085  1
  Ca  Ca32  1  0.48013097  0.96743009  0.80804238  1
  Ca  Ca33  1  0.98378492  0.56572020  0.74006417  1
  Sc  Sc34  1  0.97630558  0.02902310  0.50109291  1
  Sc  Sc35  1  0.47420589  0.58524071  0.03118507  1
  Br  Br36  1  0.44062831  0.26566690  0.98076614  1
  Br  Br37  1  0.15743779  0.07147876  0.27821075  1
  Br  Br38  1  0.77760031  1.00020645  0.32784056  1
  Br  Br39  1  0.91005654  0.32220649  0.53200997  1
  Br  Br40  1  0.19615487  0.00893612  0.68641768  1
  Br  Br41  1  0.79824204  0.98979779  0.75643804  1
  Br  Br42  1  0.54590997  0.88171340  0.08916181  1
  Br  Br43  1  0.64732717  0.54127345  0.24405339  1
  Br  Br44  1  0.24158628  0.54235372  0.19831069  1
  Br  Br45  1  0.99400839  0.72633773  0.47368259  1
  Br  Br46  1  0.24650199  0.43492991  0.66185160  1
  Br  Br47  1  0.68203419  0.54387573  0.80893740  1
