# generated using pymatgen
data_ScTlH10C2(Br3N2)2
_symmetry_space_group_name_H-M   'P 1'
_cell_length_a   8.19074595
_cell_length_b   11.42782928
_cell_length_c   8.17905062
_cell_angle_alpha   89.81741060
_cell_angle_beta   89.99955213
_cell_angle_gamma   90.00181102
_symmetry_Int_Tables_number   1
_chemical_formula_structural   ScTlH10C2(Br3N2)2
_chemical_formula_sum   'Sc2 Tl2 H20 C4 Br12 N8'
_cell_volume   765.57525957
_cell_formula_units_Z   2
loop_
 _symmetry_equiv_pos_site_id
 _symmetry_equiv_pos_as_xyz
  1  'x, y, z'
loop_
 _atom_site_type_symbol
 _atom_site_label
 _atom_site_symmetry_multiplicity
 _atom_site_fract_x
 _atom_site_fract_y
 _atom_site_fract_z
 _atom_site_occupancy
  C  C0  1  0.49349819  0.29062004  0.49579747  1
  C  C1  1  0.99356343  0.20937296  0.00420735  1
  C  C2  1  0.50665604  0.79066965  0.50355573  1
  C  C3  1  0.00659214  0.70932906  0.99643499  1
  N  N4  1  0.59767498  0.23839885  0.59353124  1
  N  N5  1  0.39330647  0.23812989  0.39479506  1
  N  N6  1  0.09775964  0.26160064  0.90651119  1
  N  N7  1  0.89334685  0.26185947  0.10520656  1
  N  N8  1  0.60470392  0.73809052  0.60695461  1
  N  N9  1  0.40471788  0.73854026  0.40380355  1
  N  N10  1  0.10465370  0.76193192  0.89305525  1
  N  N11  1  0.90461447  0.76145163  0.09616400  1
  H  H12  1  0.48951681  0.38590916  0.49910707  1
  H  H13  1  0.67268579  0.28796490  0.66486863  1
  H  H14  1  0.60523473  0.14968139  0.60562846  1
  H  H15  1  0.31463191  0.28792742  0.32712291  1
  H  H16  1  0.39181790  0.14976178  0.37685230  1
  H  H17  1  0.98956505  0.11408544  0.00088850  1
  H  H18  1  0.17279256  0.21203901  0.83518948  1
  H  H19  1  0.10534954  0.35031899  0.89444135  1
  H  H20  1  0.81465479  0.21205492  0.17285206  1
  H  H21  1  0.89186944  0.35022331  0.12315767  1
  H  H22  1  0.51038694  0.88597624  0.49992359  1
  H  H23  1  0.67620099  0.78789331  0.68171512  1
  H  H24  1  0.61709246  0.64934144  0.61456925  1
  H  H25  1  0.33641545  0.78811327  0.32556727  1
  H  H26  1  0.38650839  0.65021025  0.40302426  1
  H  H27  1  0.01034341  0.61402919  1.00006792  1
  H  H28  1  0.17617947  0.71213736  0.81831160  1
  H  H29  1  0.11702145  0.85067760  0.88544755  1
  H  H30  1  0.83630078  0.71186288  0.17437699  1
  H  H31  1  0.88637673  0.84977228  0.09692958  1
  Sc  Sc32  1  0.49910740  0.99997525  0.99836041  1
  Sc  Sc33  1  0.99910806  0.50003808  0.50165007  1
  Tl  Tl34  1  0.00044536  0.00008515  0.49772135  1
  Tl  Tl35  1  0.50044345  0.49993047  0.00228559  1
  Br  Br36  1  0.49857811  0.22613730  0.99352105  1
  Br  Br37  1  0.23189321  0.98836615  0.18378925  1
  Br  Br38  1  0.68483086  0.01510950  0.26669016  1
  Br  Br39  1  0.99854855  0.27387713  0.50652021  1
  Br  Br40  1  0.31414292  0.01000225  0.73041860  1
  Br  Br41  1  0.76763805  0.98661243  0.81268420  1
  Br  Br42  1  0.50236767  0.77386457  0.00513855  1
  Br  Br43  1  0.73187998  0.51163335  0.31622658  1
  Br  Br44  1  0.18481633  0.48488889  0.23330203  1
  Br  Br45  1  0.00241608  0.72614684  0.49481945  1
  Br  Br46  1  0.26763345  0.51340898  0.68732851  1
  Br  Br47  1  0.81413758  0.49001157  0.76959017  1
