# generated using pymatgen
data_ZnSiH12C2(I3N)2
_symmetry_space_group_name_H-M   'P 1'
_cell_length_a   8.57318437
_cell_length_b   11.84647819
_cell_length_c   8.48611098
_cell_angle_alpha   89.35958406
_cell_angle_beta   90.14981970
_cell_angle_gamma   89.86765379
_symmetry_Int_Tables_number   1
_chemical_formula_structural   ZnSiH12C2(I3N)2
_chemical_formula_sum   'Zn2 Si2 H24 C4 I12 N4'
_cell_volume   861.80761606
_cell_formula_units_Z   2
loop_
 _symmetry_equiv_pos_site_id
 _symmetry_equiv_pos_as_xyz
  1  'x, y, z'
loop_
 _atom_site_type_symbol
 _atom_site_label
 _atom_site_symmetry_multiplicity
 _atom_site_fract_x
 _atom_site_fract_y
 _atom_site_fract_z
 _atom_site_occupancy
  C  C0  1  0.42657265  0.25702970  0.43838234  1
  C  C1  1  0.92519412  0.24176391  0.06181152  1
  C  C2  1  0.57515552  0.75312240  0.56549926  1
  C  C3  1  0.07518648  0.74975926  0.93190163  1
  N  N4  1  0.56345116  0.24520578  0.54539652  1
  N  N5  1  0.06130810  0.25168587  0.95439674  1
  N  N6  1  0.43009991  0.74456841  0.47015819  1
  N  N7  1  0.93230600  0.75803809  0.02974935  1
  H  H8  1  0.46903687  0.26412485  0.31712769  1
  H  H9  1  0.35255521  0.18244804  0.45146875  1
  H  H10  1  0.36195692  0.33322522  0.46945556  1
  H  H11  1  0.62591704  0.17255885  0.51841799  1
  H  H12  1  0.63887709  0.31295503  0.52924104  1
  H  H13  1  0.53225023  0.24144441  0.66406139  1
  H  H14  1  0.96855994  0.23571141  0.18307427  1
  H  H15  1  0.86018612  0.16559998  0.03220548  1
  H  H16  1  0.85148877  0.31666040  0.04725457  1
  H  H17  1  0.13542135  0.18289379  0.97034059  1
  H  H18  1  0.12529563  0.32351057  0.98111926  1
  H  H19  1  0.02914542  0.25588912  0.83579423  1
  H  H20  1  0.54275698  0.76779664  0.68848952  1
  H  H21  1  0.64192722  0.67474015  0.55411923  1
  H  H22  1  0.64338291  0.82476066  0.52167152  1
  H  H23  1  0.36378419  0.81764035  0.48090293  1
  H  H24  1  0.36190715  0.67734507  0.50956782  1
  H  H25  1  0.45367071  0.73269737  0.35087511  1
  H  H26  1  0.03976023  0.73768790  0.80899204  1
  H  H27  1  0.14333833  0.82717286  0.94507934  1
  H  H28  1  0.14328786  0.67654866  0.97161134  1
  H  H29  1  0.86391789  0.82626286  0.99299781  1
  H  H30  1  0.86532862  0.68553391  0.01797202  1
  H  H31  1  0.95842850  0.76821443  0.14889160  1
  Si  Si32  1  0.48731267  0.02852379  0.04304028  1
  Si  Si33  1  0.98730932  0.47125015  0.45819965  1
  Zn  Zn34  1  0.03349808  0.93686303  0.61680870  1
  Zn  Zn35  1  0.53334114  0.55968325  0.88734158  1
  I  I36  1  0.49061736  0.25129274  0.97122029  1
  I  I37  1  0.21333294  0.01824139  0.18524453  1
  I  I38  1  0.67914624  0.01967541  0.29240308  1
  I  I39  1  0.99260854  0.24863611  0.52903507  1
  I  I40  1  0.31084396  0.99163414  0.68296438  1
  I  I41  1  0.80040167  0.98976224  0.78476486  1
  I  I42  1  0.50516868  0.73686607  0.05599809  1
  I  I43  1  0.71125436  0.48095923  0.31911952  1
  I  I44  1  0.17509029  0.47986389  0.20629306  1
  I  I45  1  0.00542330  0.76180336  0.44487757  1
  I  I46  1  0.30085776  0.51106068  0.71484166  1
  I  I47  1  0.81236228  0.50936686  0.82011763  1
