# generated using pymatgen
data_ScH10AuC2(Br3N2)2
_symmetry_space_group_name_H-M   'P 1'
_cell_length_a   8.31988321
_cell_length_b   10.35935432
_cell_length_c   8.30834309
_cell_angle_alpha   89.74552149
_cell_angle_beta   89.99996390
_cell_angle_gamma   90.00059908
_symmetry_Int_Tables_number   1
_chemical_formula_structural   ScH10AuC2(Br3N2)2
_chemical_formula_sum   'Sc2 H20 Au2 C4 Br12 N8'
_cell_volume   716.07754634
_cell_formula_units_Z   2
loop_
 _symmetry_equiv_pos_site_id
 _symmetry_equiv_pos_as_xyz
  1  'x, y, z'
loop_
 _atom_site_type_symbol
 _atom_site_label
 _atom_site_symmetry_multiplicity
 _atom_site_fract_x
 _atom_site_fract_y
 _atom_site_fract_z
 _atom_site_occupancy
  C  C0  1  0.49523073  0.29321538  0.49591483  1
  C  C1  1  0.99526747  0.20678556  0.00410506  1
  C  C2  1  0.50502155  0.79319465  0.50332399  1
  C  C3  1  0.00496538  0.70680656  0.99667836  1
  N  N4  1  0.59910810  0.23689729  0.59158929  1
  N  N5  1  0.39521694  0.23527499  0.39825323  1
  N  N6  1  0.09917987  0.26311305  0.90844578  1
  N  N7  1  0.89525993  0.26471974  0.10175364  1
  N  N8  1  0.60038454  0.73527672  0.60605164  1
  N  N9  1  0.40586919  0.73684380  0.40322379  1
  N  N10  1  0.10034530  0.76473861  0.89394204  1
  N  N11  1  0.90580428  0.76314251  0.09674186  1
  H  H12  1  0.49119827  0.39816216  0.49798028  1
  H  H13  1  0.67123067  0.29307333  0.66238386  1
  H  H14  1  0.61089381  0.13930067  0.60266918  1
  H  H15  1  0.31944046  0.29089154  0.32996028  1
  H  H16  1  0.38970125  0.13771418  0.38321485  1
  H  H17  1  0.99122518  0.10184109  0.00201121  1
  H  H18  1  0.17129620  0.20693669  0.83765556  1
  H  H19  1  0.11098264  0.36070624  0.89739728  1
  H  H20  1  0.81946068  0.20910100  0.17003294  1
  H  H21  1  0.88975488  0.36228127  0.11681580  1
  H  H22  1  0.50884584  0.89815180  0.50049736  1
  H  H23  1  0.67174710  0.79085809  0.67839101  1
  H  H24  1  0.61045004  0.63755260  0.61741928  1
  H  H25  1  0.33755672  0.79310114  0.32819233  1
  H  H26  1  0.38956550  0.63941762  0.39759005  1
  H  H27  1  0.00882330  0.60185106  0.99950060  1
  H  H28  1  0.17172564  0.70916439  0.82162326  1
  H  H29  1  0.11038658  0.86246164  0.88257809  1
  H  H30  1  0.83748977  0.70688115  0.17177046  1
  H  H31  1  0.88946956  0.86056730  0.10236891  1
  Sc  Sc32  1  0.49911042  0.99998425  0.99817399  1
  Sc  Sc33  1  0.99911128  0.50002360  0.50183284  1
  Au  Au34  1  1.00006932  0.00003566  0.49849855  1
  Au  Au35  1  0.50007409  0.49997086  0.00149797  1
  Br  Br36  1  0.49833743  0.26145815  0.99556137  1
  Br  Br37  1  0.24482744  0.98502081  0.18318248  1
  Br  Br38  1  0.68482184  0.01373938  0.25300929  1
  Br  Br39  1  0.99829962  0.23854769  0.50449007  1
  Br  Br40  1  0.31517171  0.01492382  0.74290758  1
  Br  Br41  1  0.75446773  0.98646139  0.81315491  1
  Br  Br42  1  0.50175375  0.73854818  0.00356165  1
  Br  Br43  1  0.74482108  0.51496834  0.31682343  1
  Br  Br44  1  0.18481816  0.48626355  0.24699175  1
  Br  Br45  1  0.00180088  0.76145750  0.49639715  1
  Br  Br46  1  0.25446619  0.51355724  0.68684955  1
  Br  Br47  1  0.81517099  0.48507873  0.75709603  1
