# generated using pymatgen
data_ScInH10C2(Br3N2)2
_symmetry_space_group_name_H-M   'P 1'
_cell_length_a   8.17270569
_cell_length_b   11.34662840
_cell_length_c   8.15924837
_cell_angle_alpha   89.77102566
_cell_angle_beta   89.99981219
_cell_angle_gamma   90.00135867
_symmetry_Int_Tables_number   1
_chemical_formula_structural   ScInH10C2(Br3N2)2
_chemical_formula_sum   'Sc2 In2 H20 C4 Br12 N8'
_cell_volume   756.62271753
_cell_formula_units_Z   2
loop_
 _symmetry_equiv_pos_site_id
 _symmetry_equiv_pos_as_xyz
  1  'x, y, z'
loop_
 _atom_site_type_symbol
 _atom_site_label
 _atom_site_symmetry_multiplicity
 _atom_site_fract_x
 _atom_site_fract_y
 _atom_site_fract_z
 _atom_site_occupancy
  C  C0  1  0.49394851  0.29055473  0.49582973  1
  C  C1  1  0.99399589  0.20944033  0.00418723  1
  C  C2  1  0.50611582  0.79059664  0.50353130  1
  C  C3  1  0.00606606  0.70940742  0.99645319  1
  N  N4  1  0.59843182  0.23817668  0.59388960  1
  N  N5  1  0.39362738  0.23785537  0.39451518  1
  N  N6  1  0.09850639  0.26182219  0.90615778  1
  N  N7  1  0.89366235  0.26213475  0.10549336  1
  N  N8  1  0.60459979  0.73780566  0.60711191  1
  N  N9  1  0.40392561  0.73828771  0.40356135  1
  N  N10  1  0.10456095  0.76221097  0.89289036  1
  N  N11  1  0.90384481  0.76170435  0.09640047  1
  H  H12  1  0.48984698  0.38649950  0.49911972  1
  H  H13  1  0.67286495  0.28853111  0.66565152  1
  H  H14  1  0.60743380  0.14885499  0.60585598  1
  H  H15  1  0.31533078  0.28840531  0.32649747  1
  H  H16  1  0.39093655  0.14885648  0.37676853  1
  H  H17  1  0.98987793  0.11349637  0.00087931  1
  H  H18  1  0.17295109  0.21146906  0.83440948  1
  H  H19  1  0.10753752  0.35114441  0.89422110  1
  H  H20  1  0.81534371  0.21158229  0.17348777  1
  H  H21  1  0.89098340  0.35113243  0.12325518  1
  H  H22  1  0.50974767  0.88655964  0.49996221  1
  H  H23  1  0.67632168  0.78836359  0.68143628  1
  H  H24  1  0.61685533  0.64846626  0.61607682  1
  H  H25  1  0.33517351  0.78868507  0.32577896  1
  H  H26  1  0.38594972  0.64930686  0.40142684  1
  H  H27  1  0.00971598  0.61344541  0.00002275  1
  H  H28  1  0.17630902  0.71166273  0.81857958  1
  H  H29  1  0.11680398  0.85155204  0.88393025  1
  H  H30  1  0.83508370  0.71129768  0.17416487  1
  H  H31  1  0.88584458  0.85068184  0.09852413  1
  Sc  Sc32  1  0.49911801  0.99998866  0.99824531  1
  Sc  Sc33  1  0.99911611  0.50002256  0.50176453  1
  In  In34  1  0.00065813  0.00006766  0.49756360  1
  In  In35  1  0.50065684  0.49994616  0.00244235  1
  Br  Br36  1  0.49878952  0.22819396  0.99435879  1
  Br  Br37  1  0.23406584  0.98801857  0.18920513  1
  Br  Br38  1  0.69027042  0.01385095  0.26429245  1
  Br  Br39  1  0.99875342  0.27181763  0.50568103  1
  Br  Br40  1  0.30861744  0.01064035  0.73253993  1
  Br  Br41  1  0.76520092  0.98760751  0.80702038  1
  Br  Br42  1  0.50221188  0.77183220  0.00428075  1
  Br  Br43  1  0.73405195  0.51197951  0.31080918  1
  Br  Br44  1  0.19025617  0.48614292  0.23570262  1
  Br  Br45  1  0.00225135  0.72817759  0.49567609  1
  Br  Br46  1  0.26519764  0.51241109  0.69298718  1
  Br  Br47  1  0.80860644  0.48937577  0.76746520  1
