# generated using pymatgen
data_ScAgH10C2(Br3N2)2
_symmetry_space_group_name_H-M   'P 1'
_cell_length_a   8.04249584
_cell_length_b   10.73028810
_cell_length_c   8.03367680
_cell_angle_alpha   89.76788902
_cell_angle_beta   89.99954590
_cell_angle_gamma   90.00185152
_symmetry_Int_Tables_number   1
_chemical_formula_structural   ScAgH10C2(Br3N2)2
_chemical_formula_sum   'Sc2 Ag2 H20 C4 Br12 N8'
_cell_volume   693.28694081
_cell_formula_units_Z   2
loop_
 _symmetry_equiv_pos_site_id
 _symmetry_equiv_pos_as_xyz
  1  'x, y, z'
loop_
 _atom_site_type_symbol
 _atom_site_label
 _atom_site_symmetry_multiplicity
 _atom_site_fract_x
 _atom_site_fract_y
 _atom_site_fract_z
 _atom_site_occupancy
  C  C0  1  0.49473884  0.29201843  0.49604338  1
  C  C1  1  0.99479129  0.20797947  0.00396389  1
  C  C2  1  0.50528794  0.79206052  0.50328505  1
  C  C3  1  0.00523159  0.70794167  0.99671996  1
  N  N4  1  0.60071807  0.23715081  0.59583765  1
  N  N5  1  0.39286110  0.23570022  0.39419076  1
  N  N6  1  0.10079239  0.26284413  0.90419134  1
  N  N7  1  0.89289661  0.26429679  0.10582369  1
  N  N8  1  0.60483786  0.73584775  0.60809178  1
  N  N9  1  0.40212185  0.73705711  0.40124465  1
  N  N10  1  0.10480212  0.76416395  0.89190894  1
  N  N11  1  0.90205492  0.76293642  0.09871616  1
  H  H12  1  0.49066239  0.39335182  0.49812774  1
  H  H13  1  0.67458778  0.29096242  0.66997605  1
  H  H14  1  0.61278660  0.14285970  0.60638079  1
  H  H15  1  0.31518964  0.28893356  0.32269310  1
  H  H16  1  0.38674623  0.14133335  0.38005471  1
  H  H17  1  0.99069453  0.10664803  0.00187093  1
  H  H18  1  0.17465770  0.20905243  0.83007249  1
  H  H19  1  0.11288259  0.35715341  0.89367779  1
  H  H20  1  0.81521301  0.21105212  0.17730000  1
  H  H21  1  0.88680024  0.35865302  0.11996620  1
  H  H22  1  0.50892402  0.89340125  0.50050838  1
  H  H23  1  0.67941934  0.78910680  0.68218750  1
  H  H24  1  0.61451323  0.64137042  0.61973802  1
  H  H25  1  0.33053949  0.79089229  0.32429740  1
  H  H26  1  0.38686507  0.64288771  0.39501334  1
  H  H27  1  0.00888948  0.60660111  0.99950668  1
  H  H28  1  0.17940032  0.71091054  0.81783401  1
  H  H29  1  0.11446171  0.85863874  0.88025922  1
  H  H30  1  0.83045643  0.70909186  0.17567299  1
  H  H31  1  0.88676770  0.85710404  0.10494010  1
  Sc  Sc32  1  0.49908638  0.99998323  0.99800852  1
  Sc  Sc33  1  0.99908419  0.50002740  0.50200472  1
  Ag  Ag34  1  0.99994116  0.00004889  0.49809903  1
  Ag  Ag35  1  0.49994508  0.49996461  0.00192350  1
  Br  Br36  1  0.49895319  0.24432344  0.99652952  1
  Br  Br37  1  0.23435428  0.98698662  0.20046846  1
  Br  Br38  1  0.70277957  0.01160756  0.26299136  1
  Br  Br39  1  0.99888404  0.25568690  0.50349171  1
  Br  Br40  1  0.29770471  0.01275925  0.73231444  1
  Br  Br41  1  0.76481382  0.98872361  0.79506622  1
  Br  Br42  1  0.50161999  0.75566853  0.00250196  1
  Br  Br43  1  0.73435516  0.51299780  0.29953387  1
  Br  Br44  1  0.20276976  0.48839526  0.23700154  1
  Br  Br45  1  0.00163317  0.74434117  0.49745774  1
  Br  Br46  1  0.26481508  0.51130050  0.70493250  1
  Br  Br47  1  0.79768764  0.48724628  0.76768498  1
