# generated using pymatgen
data_ScGaH10C2(Br3N2)2
_symmetry_space_group_name_H-M   'P 1'
_cell_length_a   8.12756530
_cell_length_b   11.24715859
_cell_length_c   8.11587252
_cell_angle_alpha   89.82469111
_cell_angle_beta   90.00000371
_cell_angle_gamma   90.00145696
_symmetry_Int_Tables_number   1
_chemical_formula_structural   ScGaH10C2(Br3N2)2
_chemical_formula_sum   'Sc2 Ga2 H20 C4 Br12 N8'
_cell_volume   741.88479372
_cell_formula_units_Z   2
loop_
 _symmetry_equiv_pos_site_id
 _symmetry_equiv_pos_as_xyz
  1  'x, y, z'
loop_
 _atom_site_type_symbol
 _atom_site_label
 _atom_site_symmetry_multiplicity
 _atom_site_fract_x
 _atom_site_fract_y
 _atom_site_fract_z
 _atom_site_occupancy
  C  C0  1  0.49377092  0.29098076  0.49600655  1
  C  C1  1  0.99382191  0.20901356  0.00401297  1
  C  C2  1  0.50635684  0.79101584  0.50354556  1
  C  C3  1  0.00629410  0.70898746  0.99643934  1
  N  N4  1  0.59861540  0.23815671  0.59466994  1
  N  N5  1  0.39304484  0.23775487  0.39403947  1
  N  N6  1  0.09870023  0.26184060  0.90538111  1
  N  N7  1  0.89308170  0.26223353  0.10596628  1
  N  N8  1  0.60538552  0.73771705  0.60745042  1
  N  N9  1  0.40342861  0.73824428  0.40317490  1
  N  N10  1  0.10534641  0.76229943  0.89255266  1
  N  N11  1  0.90333802  0.76174755  0.09677820  1
  H  H12  1  0.48962621  0.38773731  0.49933097  1
  H  H13  1  0.67212469  0.28893034  0.66831644  1
  H  H14  1  0.60902818  0.14804061  0.60497994  1
  H  H15  1  0.31564360  0.28879575  0.32417689  1
  H  H16  1  0.38877831  0.14783649  0.37784713  1
  H  H17  1  0.98966214  0.11225638  0.00066860  1
  H  H18  1  0.17222445  0.21106778  0.83175235  1
  H  H19  1  0.10914570  0.35195772  0.89510541  1
  H  H20  1  0.81565705  0.21119021  0.17580444  1
  H  H21  1  0.88882772  0.35215148  0.12217209  1
  H  H22  1  0.51017432  0.88778286  0.49995568  1
  H  H23  1  0.67909509  0.78869801  0.68085166  1
  H  H24  1  0.61598557  0.64757382  0.61789291  1
  H  H25  1  0.33285994  0.78911391  0.32639364  1
  H  H26  1  0.38690552  0.64836258  0.39961824  1
  H  H27  1  0.01012629  0.61222247  0.00002396  1
  H  H28  1  0.17907638  0.71132649  0.81916966  1
  H  H29  1  0.11593695  0.85244175  0.88211951  1
  H  H30  1  0.83275180  0.71087062  0.17353834  1
  H  H31  1  0.88679135  0.85162829  0.10032594  1
  Sc  Sc32  1  0.49909597  0.99997874  0.99848914  1
  Sc  Sc33  1  0.99909470  0.50003498  0.50152277  1
  Ga  Ga34  1  0.00074859  0.00011507  0.49793577  1
  Ga  Ga35  1  0.50074742  0.49990569  0.00207205  1
  Br  Br36  1  0.49875630  0.23026077  0.99470123  1
  Br  Br37  1  0.23272414  0.98728337  0.19104908  1
  Br  Br38  1  0.69185447  0.01457463  0.26582329  1
  Br  Br39  1  0.99872177  0.26975190  0.50534133  1
  Br  Br40  1  0.30719576  0.01164377  0.73133066  1
  Br  Br41  1  0.76675076  0.98658862  0.80591331  1
  Br  Br42  1  0.50210151  0.76976868  0.00434330  1
  Br  Br43  1  0.73270943  0.51271136  0.30896673  1
  Br  Br44  1  0.19183994  0.48542567  0.23417407  1
  Br  Br45  1  0.00213852  0.73024265  0.49561069  1
  Br  Br46  1  0.26674966  0.51343457  0.69409360  1
  Br  Br47  1  0.80718463  0.48836602  0.76867653  1
