# generated using pymatgen
data_ScZnH10C2(Br3N2)2
_symmetry_space_group_name_H-M   'P 1'
_cell_length_a   7.40596353
_cell_length_b   12.01416075
_cell_length_c   8.71610351
_cell_angle_alpha   88.70726319
_cell_angle_beta   88.20533199
_cell_angle_gamma   91.27060711
_symmetry_Int_Tables_number   1
_chemical_formula_structural   ScZnH10C2(Br3N2)2
_chemical_formula_sum   'Sc2 Zn2 H20 C4 Br12 N8'
_cell_volume   774.74693626
_cell_formula_units_Z   2
loop_
 _symmetry_equiv_pos_site_id
 _symmetry_equiv_pos_as_xyz
  1  'x, y, z'
loop_
 _atom_site_type_symbol
 _atom_site_label
 _atom_site_symmetry_multiplicity
 _atom_site_fract_x
 _atom_site_fract_y
 _atom_site_fract_z
 _atom_site_occupancy
  C  C0  1  0.47613419  0.27605053  0.45771188  1
  C  C1  1  0.98144337  0.21440533  0.04303391  1
  C  C2  1  0.52253302  0.79967103  0.50881538  1
  C  C3  1  0.99589140  0.71460284  0.99501408  1
  N  N4  1  0.52340666  0.25968865  0.60015171  1
  N  N5  1  0.41971298  0.19761687  0.36750093  1
  N  N6  1  0.00993266  0.22357083  0.89402103  1
  N  N7  1  0.92414367  0.29436435  0.13108278  1
  N  N8  1  0.57895942  0.72583686  0.60858250  1
  N  N9  1  0.49345306  0.77938064  0.36435899  1
  N  N10  1  0.07274074  0.78061500  0.88889254  1
  N  N11  1  0.98120168  0.73590404  0.14201109  1
  H  H12  1  0.48563868  0.36079252  0.40971224  1
  H  H13  1  0.55722709  0.32563952  0.66565442  1
  H  H14  1  0.50440622  0.18355717  0.65480781  1
  H  H15  1  0.40331866  0.21608449  0.25345142  1
  H  H16  1  0.41369157  0.11569578  0.40061314  1
  H  H17  1  0.00596433  0.13372203  0.09776024  1
  H  H18  1  0.05403325  0.15649331  0.83455165  1
  H  H19  1  0.98879313  0.29526626  0.83285786  1
  H  H20  1  0.91670451  0.28237851  0.24778000  1
  H  H21  1  0.90233072  0.37260168  0.08953613  1
  H  H22  1  0.49574253  0.88311131  0.55042675  1
  H  H23  1  0.59191882  0.74596197  0.72141215  1
  H  H24  1  0.60578700  0.64625277  0.57775303  1
  H  H25  1  0.45374983  0.84207745  0.29261046  1
  H  H26  1  0.51635297  0.70366292  0.31769090  1
  H  H27  1  0.94094452  0.63484090  0.95755876  1
  H  H28  1  0.07141627  0.75854237  0.77565358  1
  H  H29  1  0.12331902  0.85809224  0.91358974  1
  H  H30  1  0.92557005  0.67698354  0.21667069  1
  H  H31  1  0.02981535  0.80880556  0.18521237  1
  Sc  Sc32  1  0.51530542  0.04019761  0.97580691  1
  Sc  Sc33  1  0.97592417  0.49651792  0.55881720  1
  Zn  Zn34  1  -0.00014227  0.98022416  0.47629840  1
  Zn  Zn35  1  0.36071523  0.56277343  0.97792813  1
  Br  Br36  1  0.49168237  0.24923072  0.98759120  1
  Br  Br37  1  0.23310810  0.97129490  0.13866897  1
  Br  Br38  1  0.69606914  0.01281899  0.21916953  1
  Br  Br39  1  0.01393112  0.29129873  0.51232974  1
  Br  Br40  1  0.31438394  0.02281532  0.73179459  1
  Br  Br41  1  0.77913345  0.97951618  0.81065561  1
  Br  Br42  1  0.53561046  0.72574400  0.99000221  1
  Br  Br43  1  0.73422452  0.52018045  0.35303519  1
  Br  Br44  1  0.24369626  0.48441783  0.20801351  1
  Br  Br45  1  0.07350971  0.69844098  0.52242805  1
  Br  Br46  1  0.28589094  0.48030326  0.73972416  1
  Br  Br47  1  0.78069939  0.48201919  0.80136122  1
