# generated using pymatgen
data_ScCuH10C2(Br3N2)2
_symmetry_space_group_name_H-M   'P 1'
_cell_length_a   7.99361808
_cell_length_b   10.11568349
_cell_length_c   8.36480995
_cell_angle_alpha   89.95615831
_cell_angle_beta   90.00048160
_cell_angle_gamma   90.00036620
_symmetry_Int_Tables_number   1
_chemical_formula_structural   ScCuH10C2(Br3N2)2
_chemical_formula_sum   'Sc2 Cu2 H20 C4 Br12 N8'
_cell_volume   676.38595017
_cell_formula_units_Z   2
loop_
 _symmetry_equiv_pos_site_id
 _symmetry_equiv_pos_as_xyz
  1  'x, y, z'
loop_
 _atom_site_type_symbol
 _atom_site_label
 _atom_site_symmetry_multiplicity
 _atom_site_fract_x
 _atom_site_fract_y
 _atom_site_fract_z
 _atom_site_occupancy
  C  C0  1  0.49701375  0.29004028  0.49794426  1
  C  C1  1  0.99709295  0.20997141  0.00197207  1
  C  C2  1  0.50382787  0.79420714  0.50205127  1
  C  C3  1  0.00374621  0.70578711  0.99795941  1
  N  N4  1  0.59436646  0.23346327  0.60339790  1
  N  N5  1  0.40308562  0.22968172  0.39291104  1
  N  N6  1  0.09446246  0.26657423  0.89658016  1
  N  N7  1  0.90316495  0.27031000  0.10706457  1
  N  N8  1  0.58941723  0.73335325  0.61311219  1
  N  N9  1  0.41260453  0.73759459  0.39193892  1
  N  N10  1  0.08938135  0.76661548  0.88692592  1
  N  N11  1  0.91256457  0.76242773  0.10810486  1
  H  H12  1  0.49352211  0.39739318  0.49756912  1
  H  H13  1  0.66310132  0.29198003  0.67855103  1
  H  H14  1  0.60582957  0.13374605  0.61727736  1
  H  H15  1  0.33143991  0.28569585  0.31743648  1
  H  H16  1  0.39731569  0.12965897  0.37951981  1
  H  H17  1  0.99354580  0.10261748  0.00226261  1
  H  H18  1  0.16318284  0.20808277  0.82139309  1
  H  H19  1  0.10598259  0.36629760  0.88278336  1
  H  H20  1  0.83149649  0.21426545  0.18250046  1
  H  H21  1  0.89744975  0.37031632  0.12053152  1
  H  H22  1  0.50957583  0.90153168  0.50112017  1
  H  H23  1  0.65834556  0.78838313  0.69179875  1
  H  H24  1  0.59456965  0.63314641  0.62523255  1
  H  H25  1  0.34848414  0.79551098  0.31236045  1
  H  H26  1  0.39766147  0.63777735  0.38173171  1
  H  H27  1  0.00937315  0.59845729  0.99885229  1
  H  H28  1  0.15826112  0.71157141  0.80822170  1
  H  H29  1  0.09463424  0.86682664  0.87485519  1
  H  H30  1  0.84840260  0.70452183  0.18766805  1
  H  H31  1  0.89772310  0.86224776  0.11836047  1
  Sc  Sc32  1  0.49945598  0.99894477  0.99840818  1
  Sc  Sc33  1  0.99946885  0.50105408  0.50160512  1
  Cu  Cu34  1  0.00011109  0.00124771  0.49382934  1
  Cu  Cu35  1  0.50009061  0.49875242  0.00645823  1
  Br  Br36  1  0.49916377  0.26847330  0.99842674  1
  Br  Br37  1  0.23650899  0.98581333  0.18724812  1
  Br  Br38  1  0.69690524  0.01158709  0.25276044  1
  Br  Br39  1  0.99912556  0.23153167  0.50153616  1
  Br  Br40  1  0.30541041  0.01218161  0.74311649  1
  Br  Br41  1  0.76180176  0.98629072  0.80907113  1
  Br  Br42  1  0.50031133  0.72913869  0.00118839  1
  Br  Br43  1  0.73652724  0.51418223  0.31272009  1
  Br  Br44  1  0.19692701  0.48844250  0.24720989  1
  Br  Br45  1  0.00033217  0.77085981  0.49878888  1
  Br  Br46  1  0.26182165  0.51371932  0.69088688  1
  Br  Br47  1  0.80543279  0.48778934  0.75686193  1
