# generated using pymatgen
data_TiHgH10C2(Br3N2)2
_symmetry_space_group_name_H-M   'P 1'
_cell_length_a   8.14839914
_cell_length_b   11.40044215
_cell_length_c   8.13469770
_cell_angle_alpha   89.69583957
_cell_angle_beta   90.00038368
_cell_angle_gamma   90.00197503
_symmetry_Int_Tables_number   1
_chemical_formula_structural   TiHgH10C2(Br3N2)2
_chemical_formula_sum   'Ti2 Hg2 H20 C4 Br12 N8'
_cell_volume   755.66496661
_cell_formula_units_Z   2
loop_
 _symmetry_equiv_pos_site_id
 _symmetry_equiv_pos_as_xyz
  1  'x, y, z'
loop_
 _atom_site_type_symbol
 _atom_site_label
 _atom_site_symmetry_multiplicity
 _atom_site_fract_x
 _atom_site_fract_y
 _atom_site_fract_z
 _atom_site_occupancy
  C  C0  1  0.49388712  0.29053231  0.49578376  1
  C  C1  1  0.99393999  0.20945923  0.00423274  1
  C  C2  1  0.50643436  0.79058776  0.50348051  1
  C  C3  1  0.00637476  0.70941997  0.99649945  1
  N  N4  1  0.59908646  0.23847401  0.59409355  1
  N  N5  1  0.39290038  0.23821741  0.39428853  1
  N  N6  1  0.09916872  0.26152602  0.90595894  1
  N  N7  1  0.89293984  0.26177103  0.10571452  1
  N  N8  1  0.60512352  0.73813866  0.60785796  1
  N  N9  1  0.40396457  0.73863429  0.40298439  1
  N  N10  1  0.10508028  0.76187848  0.89214478  1
  N  N11  1  0.90386824  0.76135744  0.09696775  1
  H  H12  1  0.48962517  0.38601638  0.49903096  1
  H  H13  1  0.67193014  0.28895321  0.66726750  1
  H  H14  1  0.61052995  0.14959783  0.60455884  1
  H  H15  1  0.31588143  0.28906228  0.32492028  1
  H  H16  1  0.38785430  0.14948106  0.37834087  1
  H  H17  1  0.98965928  0.11398488  0.00096816  1
  H  H18  1  0.17203021  0.21104864  0.83279923  1
  H  H19  1  0.11065154  0.35040650  0.89552519  1
  H  H20  1  0.81590561  0.21092662  0.17505592  1
  H  H21  1  0.88791230  0.35050547  0.12167788  1
  H  H22  1  0.51028352  0.88608949  0.49964413  1
  H  H23  1  0.67823802  0.78885920  0.68071080  1
  H  H24  1  0.61552321  0.64919154  0.61951036  1
  H  H25  1  0.33378259  0.78929132  0.32667512  1
  H  H26  1  0.38739449  0.64996364  0.39875724  1
  H  H27  1  0.01023561  0.61390920  0.00034343  1
  H  H28  1  0.17821895  0.71116637  0.81931280  1
  H  H29  1  0.11546952  0.85082070  0.88049638  1
  H  H30  1  0.83366921  0.71069068  0.17325918  1
  H  H31  1  0.88727621  0.85002636  0.10118032  1
  Ti  Ti32  1  0.49820841  0.99998308  0.99843723  1
  Ti  Ti33  1  0.99820979  0.50002797  0.50158176  1
  Hg  Hg34  1  0.99913479  0.00005268  0.49820530  1
  Hg  Hg35  1  0.49913110  0.49996269  0.00181710  1
  Br  Br36  1  0.49949186  0.21632800  0.99448616  1
  Br  Br37  1  0.24236059  0.98778949  0.17783011  1
  Br  Br38  1  0.67868491  0.01421574  0.25586622  1
  Br  Br39  1  0.99946855  0.28368299  0.50555307  1
  Br  Br40  1  0.32049661  0.01065221  0.74109466  1
  Br  Br41  1  0.75646806  0.98744599  0.81901796  1
  Br  Br42  1  0.50275102  0.78369620  0.00470442  1
  Br  Br43  1  0.74234995  0.51220466  0.32218819  1
  Br  Br44  1  0.17867443  0.48577870  0.24413476  1
  Br  Br45  1  0.00279358  0.71631391  0.49524150  1
  Br  Br46  1  0.25646788  0.51257823  0.68099384  1
  Br  Br47  1  0.82048833  0.48936246  0.75891101  1
