# generated using pymatgen
data_TiH10PtC2(Br3N2)2
_symmetry_space_group_name_H-M   'P 1'
_cell_length_a   8.44757099
_cell_length_b   9.62654593
_cell_length_c   8.42287178
_cell_angle_alpha   89.89632754
_cell_angle_beta   89.98048961
_cell_angle_gamma   89.99654009
_symmetry_Int_Tables_number   1
_chemical_formula_structural   TiH10PtC2(Br3N2)2
_chemical_formula_sum   'Ti2 H20 Pt2 C4 Br12 N8'
_cell_volume   684.95460496
_cell_formula_units_Z   2
loop_
 _symmetry_equiv_pos_site_id
 _symmetry_equiv_pos_as_xyz
  1  'x, y, z'
loop_
 _atom_site_type_symbol
 _atom_site_label
 _atom_site_symmetry_multiplicity
 _atom_site_fract_x
 _atom_site_fract_y
 _atom_site_fract_z
 _atom_site_occupancy
  C  C0  1  0.49416116  0.29051846  0.48593641  1
  C  C1  1  0.99419396  0.20936630  0.01385690  1
  C  C2  1  0.50006745  0.79460514  0.50654951  1
  C  C3  1  0.00014083  0.70540529  0.99345285  1
  N  N4  1  0.58589391  0.24513203  0.59992329  1
  N  N5  1  0.37850052  0.22180909  0.41884115  1
  N  N6  1  0.08617519  0.25507343  0.90018601  1
  N  N7  1  0.87866968  0.27801310  0.08135766  1
  N  N8  1  0.59364209  0.73816431  0.61221262  1
  N  N9  1  0.41628644  0.72849247  0.39998709  1
  N  N10  1  0.09351988  0.76189353  0.88759717  1
  N  N11  1  0.91610577  0.77150092  0.09988694  1
  H  H12  1  0.51952620  0.39340811  0.43815321  1
  H  H13  1  0.67172155  0.30941431  0.64515484  1
  H  H14  1  0.57087464  0.15058645  0.65312010  1
  H  H15  1  0.31326608  0.27121561  0.33371904  1
  H  H16  1  0.33473732  0.12896210  0.45968507  1
  H  H17  1  0.01921739  0.10619410  0.06097618  1
  H  H18  1  0.17187906  0.19079391  0.85463893  1
  H  H19  1  0.07153748  0.34989361  0.84753095  1
  H  H20  1  0.81322307  0.22836376  0.16616796  1
  H  H21  1  0.83519307  0.37113506  0.04105799  1
  H  H22  1  0.48992659  0.90716778  0.50794984  1
  H  H23  1  0.65361933  0.80147680  0.68923540  1
  H  H24  1  0.61522232  0.63404421  0.62115161  1
  H  H25  1  0.34848611  0.78485710  0.32255255  1
  H  H26  1  0.41566906  0.62344453  0.38697617  1
  H  H27  1  0.99048675  0.59281375  0.99241373  1
  H  H28  1  0.15371290  0.69859879  0.81067953  1
  H  H29  1  0.11468706  0.86605327  0.87835551  1
  H  H30  1  0.84845372  0.71511354  0.17747460  1
  H  H31  1  0.91485478  0.87658576  0.11241565  1
  Ti  Ti32  1  0.51876670  0.99776728  0.01714542  1
  Ti  Ti33  1  0.01890839  0.50220171  0.48304363  1
  Pt  Pt34  1  0.06992078  0.00341375  0.41897074  1
  Pt  Pt35  1  0.57003389  0.49659724  0.08123300  1
  Br  Br36  1  0.48462028  0.26451465  0.00411297  1
  Br  Br37  1  0.25446890  0.97452662  0.17409764  1
  Br  Br38  1  0.68157201  0.01393141  0.26008950  1
  Br  Br39  1  0.98453098  0.23548139  0.49616847  1
  Br  Br40  1  0.32906696  0.00995027  0.76596521  1
  Br  Br41  1  0.75188899  0.99793438  0.82727329  1
  Br  Br42  1  0.50763373  0.73509235  0.99923424  1
  Br  Br43  1  0.75460446  0.52547876  0.32593557  1
  Br  Br44  1  0.18165073  0.48597379  0.23997197  1
  Br  Br45  1  0.00757925  0.76487599  0.50077994  1
  Br  Br46  1  0.25203256  0.50212414  0.67268569  1
  Br  Br47  1  0.82908942  0.49010265  0.73420101  1
