# generated using pymatgen
data_CrH10OsC2(Br3N2)2
_symmetry_space_group_name_H-M   'P 1'
_cell_length_a   10.34945770
_cell_length_b   7.00484546
_cell_length_c   10.14735020
_cell_angle_alpha   82.33527061
_cell_angle_beta   90.00134098
_cell_angle_gamma   90.00289159
_symmetry_Int_Tables_number   1
_chemical_formula_structural   CrH10OsC2(Br3N2)2
_chemical_formula_sum   'Cr2 H20 Os2 C4 Br12 N8'
_cell_volume   729.07323446
_cell_formula_units_Z   2
loop_
 _symmetry_equiv_pos_site_id
 _symmetry_equiv_pos_as_xyz
  1  'x, y, z'
loop_
 _atom_site_type_symbol
 _atom_site_label
 _atom_site_symmetry_multiplicity
 _atom_site_fract_x
 _atom_site_fract_y
 _atom_site_fract_z
 _atom_site_occupancy
  C  C0  1  0.48909368  0.25443194  0.54441700  1
  C  C1  1  0.98908994  0.24553358  0.95559031  1
  C  C2  1  0.49552969  0.77678520  0.47174172  1
  C  C3  1  0.99557924  0.72324422  0.02824487  1
  N  N4  1  0.61068812  0.28429066  0.57076267  1
  N  N5  1  0.44401058  0.23832335  0.42520274  1
  N  N6  1  0.11070180  0.21571508  0.92927595  1
  N  N7  1  0.94398435  0.26164607  0.07479195  1
  N  N8  1  0.57315363  0.75376901  0.57522871  1
  N  N9  1  0.37219748  0.73222037  0.47502635  1
  N  N10  1  0.07319300  0.74627566  0.92475482  1
  N  N11  1  0.87223943  0.76776434  0.02495985  1
  H  H12  1  0.42070047  0.23950885  0.62711448  1
  H  H13  1  0.63889891  0.29231820  0.66672186  1
  H  H14  1  0.67961610  0.30901013  0.49739727  1
  H  H15  1  0.34653901  0.23431945  0.40979862  1
  H  H16  1  0.50052870  0.26406847  0.34187068  1
  H  H17  1  0.92071724  0.26041055  0.87287932  1
  H  H18  1  0.13893001  0.20767026  0.83332854  1
  H  H19  1  0.17961323  0.19102793  0.00266128  1
  H  H20  1  0.84650557  0.26560711  0.09017435  1
  H  H21  1  0.00048433  0.23591900  0.15813807  1
  H  H22  1  0.53681202  0.83776258  0.37598310  1
  H  H23  1  0.66794695  0.79341633  0.56641479  1
  H  H24  1  0.54263975  0.69537621  0.66796984  1
  H  H25  1  0.31855264  0.75887565  0.39008106  1
  H  H26  1  0.32562466  0.68248156  0.56182116  1
  H  H27  1  0.03687276  0.66229864  0.12400365  1
  H  H28  1  0.16799336  0.70666536  0.93356431  1
  H  H29  1  0.04267016  0.80463984  0.83200949  1
  H  H30  1  0.81859715  0.74107326  0.10990428  1
  H  H31  1  0.82565934  0.81745331  0.93815937  1
  Cr  Cr32  1  0.49724651  0.12469873  0.04473831  1
  Cr  Cr33  1  0.99726107  0.37531976  0.45528160  1
  Os  Os34  1  0.00328444  0.10442923  0.51998761  1
  Os  Os35  1  0.50327598  0.39559716  0.98003189  1
  Br  Br36  1  0.51552921  0.96402423  0.85702722  1
  Br  Br37  1  0.30671805  0.02024811  0.16859084  1
  Br  Br38  1  0.66891400  0.04559651  0.20045204  1
  Br  Br39  1  0.01554542  0.53601202  0.64299254  1
  Br  Br40  1  0.20479051  0.02283977  0.65494725  1
  Br  Br41  1  0.84158510  0.99532630  0.69942864  1
  Br  Br42  1  0.49923628  0.57872367  0.16758527  1
  Br  Br43  1  0.80671927  0.47977317  0.33143183  1
  Br  Br44  1  0.16892095  0.45442110  0.29954667  1
  Br  Br45  1  0.99924563  0.92131407  0.33242844  1
  Br  Br46  1  0.34159663  0.50466053  0.80056302  1
  Br  Br47  1  0.70478698  0.47717646  0.84507910  1
