# generated using pymatgen
data_CrH10RuC2(Br3N2)2
_symmetry_space_group_name_H-M   'P 1'
_cell_length_a   10.43400879
_cell_length_b   7.00657338
_cell_length_c   10.08349100
_cell_angle_alpha   80.78059718
_cell_angle_beta   90.00867015
_cell_angle_gamma   89.97863136
_symmetry_Int_Tables_number   1
_chemical_formula_structural   CrH10RuC2(Br3N2)2
_chemical_formula_sum   'Cr2 H20 Ru2 C4 Br12 N8'
_cell_volume   727.64744573
_cell_formula_units_Z   2
loop_
 _symmetry_equiv_pos_site_id
 _symmetry_equiv_pos_as_xyz
  1  'x, y, z'
loop_
 _atom_site_type_symbol
 _atom_site_label
 _atom_site_symmetry_multiplicity
 _atom_site_fract_x
 _atom_site_fract_y
 _atom_site_fract_z
 _atom_site_occupancy
  C  C0  1  0.48902644  0.25735852  0.55004398  1
  C  C1  1  0.98909779  0.24247239  0.95001731  1
  C  C2  1  0.49181269  0.76448739  0.48073965  1
  C  C3  1  0.99118901  0.73542050  0.01925276  1
  N  N4  1  0.60839612  0.30399622  0.56869019  1
  N  N5  1  0.44164102  0.22632220  0.43447558  1
  N  N6  1  0.10862497  0.19678809  0.93113138  1
  N  N7  1  0.94176929  0.27312212  0.06569013  1
  N  N8  1  0.55783247  0.75723506  0.59227533  1
  N  N9  1  0.37081866  0.71388429  0.47539963  1
  N  N10  1  0.05736875  0.74312333  0.90779616  1
  N  N11  1  0.87013436  0.78588886  0.02447041  1
  H  H12  1  0.42435262  0.24122122  0.63630910  1
  H  H13  1  0.63932450  0.32147151  0.66268786  1
  H  H14  1  0.67468006  0.32400497  0.49225082  1
  H  H15  1  0.34547553  0.20465677  0.42664116  1
  H  H16  1  0.49204643  0.25910629  0.34654875  1
  H  H17  1  0.92424313  0.25810803  0.86388247  1
  H  H18  1  0.13948625  0.17949067  0.83708879  1
  H  H19  1  0.17503230  0.17710179  0.00747294  1
  H  H20  1  0.84552931  0.29387817  0.07380942  1
  H  H21  1  0.99243939  0.24070210  0.15350535  1
  H  H22  1  0.54075307  0.81564672  0.38575722  1
  H  H23  1  0.65180690  0.79922303  0.59104280  1
  H  H24  1  0.51843834  0.70379563  0.68394881  1
  H  H25  1  0.32606763  0.72611309  0.38439698  1
  H  H26  1  0.31671865  0.67421646  0.55990412  1
  H  H27  1  0.04003614  0.68398960  0.11427717  1
  H  H28  1  0.15137447  0.70125078  0.90912924  1
  H  H29  1  0.01802419  0.79676568  0.81610077  1
  H  H30  1  0.82526484  0.77322524  0.11540038  1
  H  H31  1  0.81609202  0.82578211  0.93992054  1
  Cr  Cr32  1  0.50989182  0.12359159  0.05077599  1
  Cr  Cr33  1  0.00990620  0.37646803  0.44922491  1
  Ru  Ru34  1  0.01333847  0.12052706  0.51013088  1
  Ru  Ru35  1  0.51326312  0.37950848  0.98985269  1
  Br  Br36  1  0.53218205  0.96139657  0.86703431  1
  Br  Br37  1  0.31798709  0.02000185  0.16706479  1
  Br  Br38  1  0.67528287  0.04481552  0.21310056  1
  Br  Br39  1  0.03181986  0.53854938  0.63307017  1
  Br  Br40  1  0.21006810  0.02152869  0.65322384  1
  Br  Br41  1  0.83970619  0.99247615  0.67756464  1
  Br  Br42  1  0.51428791  0.57269080  0.17531839  1
  Br  Br43  1  0.81794985  0.48008698  0.33282759  1
  Br  Br44  1  0.17525552  0.45527347  0.28693548  1
  Br  Br45  1  0.01441401  0.92715365  0.32480112  1
  Br  Br46  1  0.33975131  0.50800683  0.82225659  1
  Br  Br47  1  0.71001766  0.47813907  0.84686564  1
