# generated using pymatgen
data_CaSiH12C2(I3N)2
_symmetry_space_group_name_H-M   'P 1'
_cell_length_a   8.37336455
_cell_length_b   12.07148462
_cell_length_c   8.28858254
_cell_angle_alpha   89.22546791
_cell_angle_beta   90.00985031
_cell_angle_gamma   90.00763589
_symmetry_Int_Tables_number   1
_chemical_formula_structural   CaSiH12C2(I3N)2
_chemical_formula_sum   'Ca2 Si2 H24 C4 I12 N4'
_cell_volume   837.72458141
_cell_formula_units_Z   2
loop_
 _symmetry_equiv_pos_site_id
 _symmetry_equiv_pos_as_xyz
  1  'x, y, z'
loop_
 _atom_site_type_symbol
 _atom_site_label
 _atom_site_symmetry_multiplicity
 _atom_site_fract_x
 _atom_site_fract_y
 _atom_site_fract_z
 _atom_site_occupancy
  C  C0  1  0.39636087  0.25010866  0.41484966  1
  C  C1  1  0.89752834  0.25007741  0.08624661  1
  C  C2  1  0.60363620  0.74989543  0.58516437  1
  C  C3  1  0.10247865  0.74992442  0.91376521  1
  N  N4  1  0.53810017  0.24973001  0.52192747  1
  N  N5  1  0.03860591  0.25031975  0.97834249  1
  N  N6  1  0.46189528  0.75027352  0.47808917  1
  N  N7  1  0.96140218  0.74967803  0.02167089  1
  H  H8  1  0.43682795  0.25055090  0.28926415  1
  H  H9  1  0.32632564  0.17540256  0.43961088  1
  H  H10  1  0.32549251  0.32411860  0.43845832  1
  H  H11  1  0.60794717  0.18035245  0.49951395  1
  H  H12  1  0.60784164  0.31960548  0.49894801  1
  H  H13  1  0.50727591  0.24872918  0.64400875  1
  H  H14  1  0.93880918  0.24968748  0.21157321  1
  H  H15  1  0.82638783  0.17608515  0.06319262  1
  H  H16  1  0.82747040  0.32482149  0.06186416  1
  H  H17  1  0.10835080  0.18040694  0.00101588  1
  H  H18  1  0.10869039  0.31966742  0.00032581  1
  H  H19  1  0.00709251  0.25129418  0.85644307  1
  H  H20  1  0.56317135  0.74945412  0.71075064  1
  H  H21  1  0.67450370  0.67588536  0.56155576  1
  H  H22  1  0.67367141  0.82460148  0.56040094  1
  H  H23  1  0.39204771  0.81964988  0.50050327  1
  H  H24  1  0.39215526  0.68039644  0.50107055  1
  H  H25  1  0.49271778  0.75127393  0.35600753  1
  H  H26  1  0.06119648  0.75031709  0.78843908  1
  H  H27  1  0.17361806  0.82391657  0.93682299  1
  H  H28  1  0.17253770  0.67518043  0.93814297  1
  H  H29  1  0.89165429  0.81958959  0.99900072  1
  H  H30  1  0.89131997  0.68032916  0.99968594  1
  H  H31  1  0.99291646  0.74870234  0.14357012  1
  Si  Si32  1  0.50000232  0.00000468  0.00000947  1
  Si  Si33  1  0.99999256  0.50000366  0.49999518  1
  Ca  Ca34  1  0.00000103  0.00000371  0.50000910  1
  Ca  Ca35  1  0.49999808  0.50000710  0.99999470  1
  I  I36  1  0.47656108  0.24313118  0.94690449  1
  I  I37  1  0.19316635  0.00898062  0.17715306  1
  I  I38  1  0.67759871  0.01379210  0.30979779  1
  I  I39  1  0.97589576  0.25687000  0.55370912  1
  I  I40  1  0.32240346  0.98621467  0.69021916  1
  I  I41  1  0.80683976  0.99102108  0.82286560  1
  I  I42  1  0.52344381  0.75687903  0.05311295  1
  I  I43  1  0.69315457  0.49089355  0.32276619  1
  I  I44  1  0.17771573  0.48632959  0.19026747  1
  I  I45  1  0.02409813  0.74313547  0.44630195  1
  I  I46  1  0.30683946  0.50911052  0.67723239  1
  I  I47  1  0.82228324  0.51367586  0.80973278  1
