# generated using pymatgen
data_TlCoH10C2(Br3N2)2
_symmetry_space_group_name_H-M   'P 1'
_cell_length_a   8.01387231
_cell_length_b   10.96947844
_cell_length_c   8.00133345
_cell_angle_alpha   89.66425507
_cell_angle_beta   89.99966344
_cell_angle_gamma   90.00258949
_symmetry_Int_Tables_number   1
_chemical_formula_structural   TlCoH10C2(Br3N2)2
_chemical_formula_sum   'Tl2 Co2 H20 C4 Br12 N8'
_cell_volume   703.36914040
_cell_formula_units_Z   2
loop_
 _symmetry_equiv_pos_site_id
 _symmetry_equiv_pos_as_xyz
  1  'x, y, z'
loop_
 _atom_site_type_symbol
 _atom_site_label
 _atom_site_symmetry_multiplicity
 _atom_site_fract_x
 _atom_site_fract_y
 _atom_site_fract_z
 _atom_site_occupancy
  C  C0  1  0.49441453  0.29202612  0.49577946  1
  C  C1  1  0.99446695  0.20797094  0.00423703  1
  C  C2  1  0.50525340  0.79205700  0.50319028  1
  C  C3  1  0.00520064  0.70794761  0.99680436  1
  N  N4  1  0.60074475  0.23785486  0.59563200  1
  N  N5  1  0.39201642  0.23697999  0.39356526  1
  N  N6  1  0.10081674  0.26214782  0.90440460  1
  N  N7  1  0.89206042  0.26301027  0.10644633  1
  N  N8  1  0.60540398  0.73710879  0.60846195  1
  N  N9  1  0.40208170  0.73776616  0.40091322  1
  N  N10  1  0.10535301  0.76290506  0.89153736  1
  N  N11  1  0.90199878  0.76222903  0.09905699  1
  H  H12  1  0.49046785  0.39120220  0.49804841  1
  H  H13  1  0.67854604  0.29000781  0.66665358  1
  H  H14  1  0.60697993  0.14558525  0.61204977  1
  H  H15  1  0.31052321  0.28887571  0.32547961  1
  H  H16  1  0.39137690  0.14510601  0.37347513  1
  H  H17  1  0.99050929  0.10879501  0.00195799  1
  H  H18  1  0.17862500  0.20999697  0.83339266  1
  H  H19  1  0.10707006  0.35441794  0.88799997  1
  H  H20  1  0.81054797  0.21111179  0.17451091  1
  H  H21  1  0.89142481  0.35488411  0.12653944  1
  H  H22  1  0.50818135  0.89126084  0.50029455  1
  H  H23  1  0.67653083  0.78914837  0.68636202  1
  H  H24  1  0.62170997  0.64481766  0.61436867  1
  H  H25  1  0.33354935  0.78981371  0.31995022  1
  H  H26  1  0.38167371  0.64589760  0.40033429  1
  H  H27  1  0.00814972  0.60874450  0.99971760  1
  H  H28  1  0.17650666  0.71087350  0.81365722  1
  H  H29  1  0.12164489  0.85519834  0.88562492  1
  H  H30  1  0.83346715  0.71017450  0.18001814  1
  H  H31  1  0.88157096  0.85409371  0.09961988  1
  Co  Co32  1  0.49980392  0.00002319  0.99812895  1
  Co  Co33  1  0.99980349  0.49998423  0.50187503  1
  Tl  Tl34  1  0.00152749  0.00003794  0.49719393  1
  Tl  Tl35  1  0.50153152  0.49997260  0.00280606  1
  Br  Br36  1  0.49863330  0.22137038  0.99541204  1
  Br  Br37  1  0.25593139  0.99022603  0.18459944  1
  Br  Br38  1  0.68653826  0.00879246  0.24201953  1
  Br  Br39  1  0.99859321  0.27864047  0.50462858  1
  Br  Br40  1  0.31321199  0.00908944  0.75410092  1
  Br  Br41  1  0.74329235  0.99205424  0.81073846  1
  Br  Br42  1  0.50163986  0.77868454  0.00232831  1
  Br  Br43  1  0.75593084  0.50976318  0.31540661  1
  Br  Br44  1  0.18653821  0.49120620  0.25798618  1
  Br  Br45  1  0.00168607  0.72132037  0.49763038  1
  Br  Br46  1  0.24328301  0.50796764  0.68926794  1
  Br  Br47  1  0.81320741  0.49092090  0.74589859  1
