# generated using pymatgen
data_GaCoH10C2(Br3N2)2
_symmetry_space_group_name_H-M   'P 1'
_cell_length_a   8.00531746
_cell_length_b   10.66786709
_cell_length_c   7.99250836
_cell_angle_alpha   89.62595045
_cell_angle_beta   90.00005844
_cell_angle_gamma   90.00179167
_symmetry_Int_Tables_number   1
_chemical_formula_structural   GaCoH10C2(Br3N2)2
_chemical_formula_sum   'Ga2 Co2 H20 C4 Br12 N8'
_cell_volume   682.54297274
_cell_formula_units_Z   2
loop_
 _symmetry_equiv_pos_site_id
 _symmetry_equiv_pos_as_xyz
  1  'x, y, z'
loop_
 _atom_site_type_symbol
 _atom_site_label
 _atom_site_symmetry_multiplicity
 _atom_site_fract_x
 _atom_site_fract_y
 _atom_site_fract_z
 _atom_site_occupancy
  C  C0  1  0.49491926  0.29238890  0.49578253  1
  C  C1  1  0.99496898  0.20761928  0.00422777  1
  C  C2  1  0.50456011  0.79234845  0.50329652  1
  C  C3  1  0.00451507  0.70764767  0.99669188  1
  N  N4  1  0.60168896  0.23708541  0.59569369  1
  N  N5  1  0.39250810  0.23584158  0.39358612  1
  N  N6  1  0.10175455  0.26292210  0.90433926  1
  N  N7  1  0.89254872  0.26415451  0.10642685  1
  N  N8  1  0.60480325  0.73583038  0.60856001  1
  N  N9  1  0.40132759  0.73698802  0.40065782  1
  N  N10  1  0.10475299  0.76418235  0.89144092  1
  N  N11  1  0.90125159  0.76299992  0.09931619  1
  H  H12  1  0.49058209  0.39429499  0.49803172  1
  H  H13  1  0.67794178  0.29117387  0.66808825  1
  H  H14  1  0.61004094  0.14222630  0.61105624  1
  H  H15  1  0.31210662  0.28943574  0.32416438  1
  H  H16  1  0.39047916  0.14128806  0.37458217  1
  H  H17  1  0.99061461  0.10570856  0.00196509  1
  H  H18  1  0.17801274  0.20883895  0.83195805  1
  H  H19  1  0.11013447  0.35778238  0.88900063  1
  H  H20  1  0.81212767  0.21055825  0.17582535  1
  H  H21  1  0.89052938  0.35870947  0.12544007  1
  H  H22  1  0.50748121  0.89429602  0.50076941  1
  H  H23  1  0.67733567  0.78947709  0.68521658  1
  H  H24  1  0.62001367  0.64090833  0.61588585  1
  H  H25  1  0.33147449  0.79107118  0.32112972  1
  H  H26  1  0.38199279  0.64244576  0.39793381  1
  H  H27  1  0.00745358  0.60570459  0.99923039  1
  H  H28  1  0.17731261  0.71054539  0.81479995  1
  H  H29  1  0.11995353  0.85910465  0.88411827  1
  H  H30  1  0.83140215  0.70890676  0.17883958  1
  H  H31  1  0.88189886  0.85753835  0.10202928  1
  Co  Co32  1  0.49971145  0.00003367  0.99794611  1
  Co  Co33  1  0.99970670  0.49997228  0.50205773  1
  Ga  Ga34  1  0.00234791  0.00025505  0.49920602  1
  Ga  Ga35  1  0.50238330  0.49977419  0.00079418  1
  Br  Br36  1  0.49917129  0.23087878  0.99609544  1
  Br  Br37  1  0.25522404  0.98894155  0.18461756  1
  Br  Br38  1  0.68686093  0.00877728  0.24198476  1
  Br  Br39  1  0.99912648  0.26911709  0.50394174  1
  Br  Br40  1  0.31284085  0.01126802  0.75295564  1
  Br  Br41  1  0.74373546  0.99127870  0.81006084  1
  Br  Br42  1  0.50088219  0.76933492  0.00180066  1
  Br  Br43  1  0.75521165  0.51104634  0.31539619  1
  Br  Br44  1  0.18684269  0.49121961  0.25801748  1
  Br  Br45  1  0.00091768  0.73066676  0.49815757  1
  Br  Br46  1  0.24372890  0.50874562  0.68993675  1
  Br  Br47  1  0.81284063  0.48872986  0.74705176  1
