# generated using pymatgen
data_NiHgH10C2(Br3N2)2
_symmetry_space_group_name_H-M   'P 1'
_cell_length_a   7.19415685
_cell_length_b   11.08639611
_cell_length_c   8.77355427
_cell_angle_alpha   90.12716743
_cell_angle_beta   89.97457252
_cell_angle_gamma   89.99997349
_symmetry_Int_Tables_number   1
_chemical_formula_structural   NiHgH10C2(Br3N2)2
_chemical_formula_sum   'Ni2 Hg2 H20 C4 Br12 N8'
_cell_volume   699.75296676
_cell_formula_units_Z   2
loop_
 _symmetry_equiv_pos_site_id
 _symmetry_equiv_pos_as_xyz
  1  'x, y, z'
loop_
 _atom_site_type_symbol
 _atom_site_label
 _atom_site_symmetry_multiplicity
 _atom_site_fract_x
 _atom_site_fract_y
 _atom_site_fract_z
 _atom_site_occupancy
  C  C0  1  0.46956053  0.28913069  0.49103022  1
  C  C1  1  0.96952163  0.21087731  0.00896979  1
  C  C2  1  0.52864355  0.79542434  0.50330838  1
  C  C3  1  0.02865867  0.70456290  0.99671516  1
  N  N4  1  0.55039776  0.26107909  0.61954697  1
  N  N5  1  0.45772465  0.21818971  0.37134833  1
  N  N6  1  0.05040817  0.23893384  0.88041493  1
  N  N7  1  0.95764539  0.28181641  0.12865992  1
  N  N8  1  0.53437410  0.72384966  0.62154253  1
  N  N9  1  0.44657346  0.77024387  0.37362864  1
  N  N10  1  0.03448117  0.77612678  0.87846541  1
  N  N11  1  0.94655712  0.72977495  0.12642770  1
  H  H12  1  0.40546993  0.37786728  0.48361333  1
  H  H13  1  0.55813998  0.32384946  0.70443119  1
  H  H14  1  0.61262070  0.17976601  0.64083205  1
  H  H15  1  0.39577520  0.24768078  0.27384036  1
  H  H16  1  0.52285144  0.13650743  0.36485467  1
  H  H17  1  0.90543463  0.12213840  0.01641079  1
  H  H18  1  0.05814735  0.17617425  0.79551302  1
  H  H19  1  0.11260328  0.32025887  0.85909914  1
  H  H20  1  0.89567255  0.25231361  0.22619834  1
  H  H21  1  0.02276501  0.36349754  0.13513978  1
  H  H22  1  0.59854768  0.88225245  0.51353096  1
  H  H23  1  0.59129178  0.75399695  0.72155896  1
  H  H24  1  0.46384627  0.64354752  0.62601440  1
  H  H25  1  0.44071103  0.83251813  0.28809556  1
  H  H26  1  0.37222981  0.69266973  0.35794221  1
  H  H27  1  0.09851329  0.61771132  0.98647153  1
  H  H28  1  0.09137900  0.74594165  0.77841858  1
  H  H29  1  0.96397220  0.85643424  0.87400150  1
  H  H30  1  0.94061606  0.66750651  0.21197083  1
  H  H31  1  0.87227362  0.80738164  0.14213704  1
  Ni  Ni32  1  0.49969247  0.99763020  0.97783426  1
  Ni  Ni33  1  0.99965146  0.50236946  0.52216268  1
  Hg  Hg34  1  0.03029393  0.00627441  0.45619445  1
  Hg  Hg35  1  0.53022751  0.49373744  0.04378805  1
  Br  Br36  1  0.49812781  0.20947190  0.98844741  1
  Br  Br37  1  0.24745805  0.99161663  0.14564923  1
  Br  Br38  1  0.76397567  0.00214966  0.26755645  1
  Br  Br39  1  0.99813184  0.29052401  0.51154537  1
  Br  Br40  1  0.25921621  0.00679779  0.66948587  1
  Br  Br41  1  0.73409407  0.00041186  0.78687652  1
  Br  Br42  1  0.51860899  0.78631160  0.98795511  1
  Br  Br43  1  0.74751378  0.50837798  0.35440486  1
  Br  Br44  1  0.26390073  0.49785108  0.23261812  1
  Br  Br45  1  0.01850371  0.71369770  0.51208571  1
  Br  Br46  1  0.23401877  0.49958801  0.71302805  1
  Br  Br47  1  0.75919732  0.49322992  0.83034035  1
