# generated using pymatgen
data_HfNiH10C2(Br3N2)2
_symmetry_space_group_name_H-M   'P 1'
_cell_length_a   8.48236923
_cell_length_b   9.45668027
_cell_length_c   8.50487840
_cell_angle_alpha   89.88606880
_cell_angle_beta   90.00202053
_cell_angle_gamma   89.99974072
_symmetry_Int_Tables_number   1
_chemical_formula_structural   HfNiH10C2(Br3N2)2
_chemical_formula_sum   'Hf2 Ni2 H20 C4 Br12 N8'
_cell_volume   682.21792909
_cell_formula_units_Z   2
loop_
 _symmetry_equiv_pos_site_id
 _symmetry_equiv_pos_as_xyz
  1  'x, y, z'
loop_
 _atom_site_type_symbol
 _atom_site_label
 _atom_site_symmetry_multiplicity
 _atom_site_fract_x
 _atom_site_fract_y
 _atom_site_fract_z
 _atom_site_occupancy
  C  C0  1  0.49640769  0.29503689  0.49998548  1
  C  C1  1  0.99642310  0.20497197  0.00001607  1
  C  C2  1  0.50693521  0.79409658  0.50293934  1
  C  C3  1  0.00690546  0.70590300  0.99705518  1
  N  N4  1  0.59537325  0.23709237  0.59896203  1
  N  N5  1  0.41128106  0.22923100  0.39495563  1
  N  N6  1  0.09540846  0.26291105  0.90104352  1
  N  N7  1  0.91131909  0.27076993  0.10504364  1
  N  N8  1  0.60570995  0.72996948  0.59701630  1
  N  N9  1  0.40104624  0.73422599  0.41308755  1
  N  N10  1  0.10569064  0.77003385  0.90298524  1
  N  N11  1  0.90102019  0.76577061  0.08690440  1
  H  H12  1  0.48175827  0.40890824  0.50729942  1
  H  H13  1  0.65814075  0.30037472  0.67406362  1
  H  H14  1  0.62021611  0.13171579  0.60265250  1
  H  H15  1  0.33913886  0.28727313  0.32285757  1
  H  H16  1  0.41979491  0.12377575  0.37167381  1
  H  H17  1  0.98175262  0.09110355  0.99266652  1
  H  H18  1  0.15815706  0.19963412  0.82594032  1
  H  H19  1  0.12027191  0.36828709  0.89738802  1
  H  H20  1  0.83916520  0.21273296  0.17712982  1
  H  H21  1  0.91985574  0.37622621  0.12835963  1
  H  H22  1  0.51381999  0.90868360  0.49837560  1
  H  H23  1  0.68334973  0.78967626  0.66120533  1
  H  H24  1  0.61269922  0.62314674  0.61069573  1
  H  H25  1  0.33346482  0.79613131  0.34095669  1
  H  H26  1  0.38440184  0.62795161  0.40418062  1
  H  H27  1  0.01378621  0.59131803  0.00159658  1
  H  H28  1  0.18331833  0.71032855  0.83880105  1
  H  H29  1  0.11267393  0.87685700  0.88932145  1
  H  H30  1  0.83342928  0.70386807  0.15901253  1
  H  H31  1  0.88437488  0.87205086  0.09582208  1
  Ni  Ni32  1  0.41013415  0.99900961  0.08172021  1
  Ni  Ni33  1  0.91013839  0.50098821  0.41832338  1
  Hf  Hf34  1  0.00543237  0.00060250  0.49097431  1
  Hf  Hf35  1  0.50542973  0.49939522  0.00903638  1
  Br  Br36  1  0.50476104  0.21906256  0.00149796  1
  Br  Br37  1  0.18253169  0.98928514  0.23508025  1
  Br  Br38  1  0.75069293  0.01207608  0.31102613  1
  Br  Br39  1  0.00477625  0.28094000  0.49853853  1
  Br  Br40  1  0.25614092  0.01237267  0.67355705  1
  Br  Br41  1  0.82112041  0.98858447  0.74268570  1
  Br  Br42  1  0.50564101  0.77847381  0.00569749  1
  Br  Br43  1  0.68254518  0.51071597  0.26493174  1
  Br  Br44  1  0.25069099  0.48793700  0.18896904  1
  Br  Br45  1  0.00564865  0.72152756  0.49430629  1
  Br  Br46  1  0.32111863  0.51141534  0.75731249  1
  Br  Br47  1  0.75612698  0.48762053  0.82645454  1
