# generated using pymatgen
data_ZrNiH10C2(Br3N2)2
_symmetry_space_group_name_H-M   'P 1'
_cell_length_a   8.16541016
_cell_length_b   9.68757740
_cell_length_c   8.54524419
_cell_angle_alpha   89.80069119
_cell_angle_beta   90.00075943
_cell_angle_gamma   90.00014356
_symmetry_Int_Tables_number   1
_chemical_formula_structural   ZrNiH10C2(Br3N2)2
_chemical_formula_sum   'Zr2 Ni2 H20 C4 Br12 N8'
_cell_volume   675.95072851
_cell_formula_units_Z   2
loop_
 _symmetry_equiv_pos_site_id
 _symmetry_equiv_pos_as_xyz
  1  'x, y, z'
loop_
 _atom_site_type_symbol
 _atom_site_label
 _atom_site_symmetry_multiplicity
 _atom_site_fract_x
 _atom_site_fract_y
 _atom_site_fract_z
 _atom_site_occupancy
  C  C0  1  0.49237124  0.29907978  0.50366882  1
  C  C1  1  0.99239025  0.20092667  0.99631854  1
  C  C2  1  0.50561801  0.78882020  0.50482984  1
  C  C3  1  0.00560947  0.71117398  0.99517068  1
  N  N4  1  0.59362935  0.24210128  0.60328969  1
  N  N5  1  0.40694246  0.23388077  0.39786541  1
  N  N6  1  0.09365366  0.25792162  0.89672876  1
  N  N7  1  0.90695862  0.26611643  0.10213871  1
  N  N8  1  0.60301801  0.72628970  0.60343494  1
  N  N9  1  0.39950641  0.72987760  0.41179959  1
  N  N10  1  0.10299810  0.77370342  0.89658883  1
  N  N11  1  0.89948332  0.77013118  0.08819644  1
  H  H12  1  0.47591738  0.41015760  0.51079602  1
  H  H13  1  0.65724100  0.30328820  0.67974294  1
  H  H14  1  0.61834485  0.13876874  0.60735665  1
  H  H15  1  0.33167634  0.28859524  0.32492166  1
  H  H16  1  0.41706019  0.13039153  0.37761130  1
  H  H17  1  0.97592343  0.08985386  0.98915386  1
  H  H18  1  0.15727159  0.19673855  0.82026365  1
  H  H19  1  0.11838787  0.36124670  0.89269322  1
  H  H20  1  0.83168537  0.21138610  0.17505783  1
  H  H21  1  0.91709980  0.36959521  0.12243075  1
  H  H22  1  0.51438248  0.90060379  0.49849554  1
  H  H23  1  0.68133609  0.78530267  0.66900715  1
  H  H24  1  0.60624714  0.62228708  0.62080224  1
  H  H25  1  0.33138759  0.79031686  0.33813069  1
  H  H26  1  0.37904589  0.62640505  0.40739226  1
  H  H27  1  0.01437281  0.59939263  0.00150543  1
  H  H28  1  0.18133633  0.71468872  0.83101302  1
  H  H29  1  0.10624443  0.87770715  0.87921877  1
  H  H30  1  0.83136016  0.70967674  0.16186398  1
  H  H31  1  0.87902675  0.87359254  0.09260797  1
  Ni  Ni32  1  0.48417705  0.99793973  0.12903425  1
  Ni  Ni33  1  0.98418879  0.50206490  0.37097948  1
  Zr  Zr34  1  0.00361432  0.00074074  0.48106292  1
  Zr  Zr35  1  0.50361975  0.49926448  0.01893835  1
  Br  Br36  1  0.49730904  0.22283964  0.00610795  1
  Br  Br37  1  0.19976182  0.98819386  0.22768744  1
  Br  Br38  1  0.72897167  0.01309116  0.29919933  1
  Br  Br39  1  0.99729845  0.27715817  0.49389137  1
  Br  Br40  1  0.26119797  0.01299945  0.67320126  1
  Br  Br41  1  0.80996520  0.98771429  0.73802252  1
  Br  Br42  1  0.50122770  0.77504042  0.00886156  1
  Br  Br43  1  0.69977503  0.51181041  0.27231161  1
  Br  Br44  1  0.22898107  0.48691739  0.20080041  1
  Br  Br45  1  0.00122811  0.72497382  0.49113299  1
  Br  Br46  1  0.30997718  0.51229738  0.76196958  1
  Br  Br47  1  0.76119981  0.48699953  0.82680859  1
