# generated using pymatgen
data_CuBiH10C2(Br3N2)2
_symmetry_space_group_name_H-M   'P 1'
_cell_length_a   7.93184169
_cell_length_b   10.67720016
_cell_length_c   8.28123904
_cell_angle_alpha   90.04144651
_cell_angle_beta   90.00082254
_cell_angle_gamma   89.99518372
_symmetry_Int_Tables_number   1
_chemical_formula_structural   CuBiH10C2(Br3N2)2
_chemical_formula_sum   'Cu2 Bi2 H20 C4 Br12 N8'
_cell_volume   701.33679994
_cell_formula_units_Z   2
loop_
 _symmetry_equiv_pos_site_id
 _symmetry_equiv_pos_as_xyz
  1  'x, y, z'
loop_
 _atom_site_type_symbol
 _atom_site_label
 _atom_site_symmetry_multiplicity
 _atom_site_fract_x
 _atom_site_fract_y
 _atom_site_fract_z
 _atom_site_occupancy
  C  C0  1  0.49652003  0.29136253  0.49829285  1
  C  C1  1  0.99656245  0.20868456  0.00163017  1
  C  C2  1  0.50370084  0.79093393  0.50210803  1
  C  C3  1  0.00361005  0.70901817  0.99789800  1
  N  N4  1  0.59120791  0.23712929  0.60710055  1
  N  N5  1  0.40602696  0.23380343  0.38897464  1
  N  N6  1  0.09128383  0.26294912  0.89288867  1
  N  N7  1  0.90608207  0.26621995  0.11099527  1
  N  N8  1  0.59342916  0.73320562  0.61172436  1
  N  N9  1  0.40885233  0.73692854  0.39318461  1
  N  N10  1  0.09338226  0.76673833  0.88832363  1
  N  N11  1  0.90881221  0.76302914  0.10686392  1
  H  H12  1  0.49232980  0.39323580  0.49877926  1
  H  H13  1  0.66067504  0.29193862  0.68350313  1
  H  H14  1  0.59961067  0.14243329  0.62187728  1
  H  H15  1  0.33334545  0.28632981  0.31281077  1
  H  H16  1  0.40470454  0.13904053  0.37300974  1
  H  H17  1  0.99231763  0.10681479  0.00103854  1
  H  H18  1  0.16073253  0.20815940  0.81643793  1
  H  H19  1  0.09973344  0.35764926  0.87820781  1
  H  H20  1  0.83337520  0.21367953  0.18710566  1
  H  H21  1  0.90481266  0.36097227  0.12704948  1
  H  H22  1  0.50876236  0.89278493  0.50147656  1
  H  H23  1  0.66188033  0.78576192  0.69147412  1
  H  H24  1  0.60193847  0.63816995  0.62109501  1
  H  H25  1  0.34507976  0.79187372  0.31255197  1
  H  H26  1  0.39184410  0.64239218  0.38505046  1
  H  H27  1  0.00856646  0.60716346  0.99844559  1
  H  H28  1  0.16178389  0.71417256  0.80853122  1
  H  H29  1  0.10197752  0.86177325  0.87901847  1
  H  H30  1  0.84500319  0.70808054  0.18745251  1
  H  H31  1  0.89189319  0.85757132  0.11508223  1
  Cu  Cu32  1  0.50064544  -0.00004183  0.99394996  1
  Cu  Cu33  1  0.00056180  0.50005605  0.50624793  1
  Bi  Bi34  1  0.00062004  0.00019814  0.49741580  1
  Bi  Bi35  1  0.50062316  0.49981722  0.00261833  1
  Br  Br36  1  0.49925598  0.22877426  0.99878156  1
  Br  Br37  1  0.22020540  0.98682455  0.21811962  1
  Br  Br38  1  0.71871564  0.01294780  0.27712264  1
  Br  Br39  1  0.99923676  0.27124158  0.50119051  1
  Br  Br40  1  0.28312310  0.01347377  0.71847319  1
  Br  Br41  1  0.77720963  0.98735735  0.77781563  1
  Br  Br42  1  0.50029489  0.77097023  0.00140283  1
  Br  Br43  1  0.72022363  0.51317947  0.28189231  1
  Br  Br44  1  0.21872948  0.48708432  0.22282387  1
  Br  Br45  1  0.00033103  0.72903906  0.49859505  1
  Br  Br46  1  0.27725317  0.51264306  0.72215603  1
  Br  Br47  1  0.78315385  0.48649817  0.78151705  1
