# generated using pymatgen
data_CuH10AuC2(Br3N2)2
_symmetry_space_group_name_H-M   'P 1'
_cell_length_a   7.56595731
_cell_length_b   10.90264645
_cell_length_c   8.52322266
_cell_angle_alpha   90.13813897
_cell_angle_beta   90.00225076
_cell_angle_gamma   89.99460577
_symmetry_Int_Tables_number   1
_chemical_formula_structural   CuH10AuC2(Br3N2)2
_chemical_formula_sum   'Cu2 H20 Au2 C4 Br12 N8'
_cell_volume   703.06970533
_cell_formula_units_Z   2
loop_
 _symmetry_equiv_pos_site_id
 _symmetry_equiv_pos_as_xyz
  1  'x, y, z'
loop_
 _atom_site_type_symbol
 _atom_site_label
 _atom_site_symmetry_multiplicity
 _atom_site_fract_x
 _atom_site_fract_y
 _atom_site_fract_z
 _atom_site_occupancy
  C  C0  1  0.49739502  0.28639697  0.49808839  1
  C  C1  1  0.99755294  0.21362007  0.00190895  1
  C  C2  1  0.50356389  0.78806543  0.50249869  1
  C  C3  1  0.00327252  0.71192060  0.99750919  1
  N  N4  1  0.58265148  0.23304919  0.61289550  1
  N  N5  1  0.41478362  0.23010338  0.38381863  1
  N  N6  1  0.08278198  0.26696897  0.88709874  1
  N  N7  1  0.91490985  0.26991048  0.11616219  1
  N  N8  1  0.58194055  0.73155710  0.61872977  1
  N  N9  1  0.42008712  0.73516864  0.38607879  1
  N  N10  1  0.08171481  0.76840251  0.88130699  1
  N  N11  1  0.91988643  0.76484226  0.11396086  1
  H  H12  1  0.49481137  0.38635517  0.49763454  1
  H  H13  1  0.64681086  0.28659065  0.69337729  1
  H  H14  1  0.59289724  0.14028320  0.62549943  1
  H  H15  1  0.34869353  0.28158380  0.30274135  1
  H  H16  1  0.40894741  0.13706494  0.37171466  1
  H  H17  1  0.99504743  0.11366152  0.00238154  1
  H  H18  1  0.14696673  0.21342760  0.80663014  1
  H  H19  1  0.09296297  0.35973486  0.87447217  1
  H  H20  1  0.84884164  0.21843113  0.19724115  1
  H  H21  1  0.90900378  0.36295028  0.12824106  1
  H  H22  1  0.50848100  0.88792674  0.50282297  1
  H  H23  1  0.64459248  0.78274128  0.70261950  1
  H  H24  1  0.58867253  0.63844319  0.62814771  1
  H  H25  1  0.36150512  0.78874138  0.30249708  1
  H  H26  1  0.40495836  0.64246467  0.37619553  1
  H  H27  1  0.00802424  0.61205463  0.99711888  1
  H  H28  1  0.14431360  0.71719564  0.79739659  1
  H  H29  1  0.08860475  0.86151175  0.87195635  1
  H  H30  1  0.86124956  0.71128653  0.19750999  1
  H  H31  1  0.90489975  0.85755965  0.12390758  1
  Cu  Cu32  1  0.49959567  0.00175145  0.99801323  1
  Cu  Cu33  1  0.99962694  0.49827037  0.50190604  1
  Au  Au34  1  0.00031521  0.02254961  0.49848805  1
  Au  Au35  1  0.50026276  0.47745275  0.00153106  1
  Br  Br36  1  0.49943797  0.24537631  0.99901963  1
  Br  Br37  1  0.26995849  0.98043775  0.16945622  1
  Br  Br38  1  0.75132094  0.02189022  0.30467135  1
  Br  Br39  1  0.99937254  0.25461572  0.50106429  1
  Br  Br40  1  0.24985748  0.02194022  0.69149891  1
  Br  Br41  1  0.72952037  0.98098691  0.82655983  1
  Br  Br42  1  0.49965959  0.70733148  0.00231523  1
  Br  Br43  1  0.76991112  0.51953826  0.33052175  1
  Br  Br44  1  0.25127129  0.47818171  0.19533030  1
  Br  Br45  1  0.99980086  0.79268065  0.49760711  1
  Br  Br46  1  0.22949070  0.51905968  0.67342868  1
  Br  Br47  1  0.74979284  0.47798570  0.80853090  1
