# generated using pymatgen
data_CuH10IrC2(Br3N2)2
_symmetry_space_group_name_H-M   'P 1'
_cell_length_a   8.39122725
_cell_length_b   8.93984343
_cell_length_c   8.76939719
_cell_angle_alpha   90.09113792
_cell_angle_beta   90.06819820
_cell_angle_gamma   92.38015533
_symmetry_Int_Tables_number   1
_chemical_formula_structural   CuH10IrC2(Br3N2)2
_chemical_formula_sum   'Cu2 H20 Ir2 C4 Br12 N8'
_cell_volume   657.27846639
_cell_formula_units_Z   2
loop_
 _symmetry_equiv_pos_site_id
 _symmetry_equiv_pos_as_xyz
  1  'x, y, z'
loop_
 _atom_site_type_symbol
 _atom_site_label
 _atom_site_symmetry_multiplicity
 _atom_site_fract_x
 _atom_site_fract_y
 _atom_site_fract_z
 _atom_site_occupancy
  C  C0  1  0.50672268  0.31297265  0.50461654  1
  C  C1  1  0.99055189  0.18815559  0.00017194  1
  C  C2  1  0.50418833  0.77510473  0.52287272  1
  C  C3  1  0.00488246  0.73130278  0.01927718  1
  N  N4  1  0.60184842  0.25091901  0.60163361  1
  N  N5  1  0.41726087  0.24157155  0.40361903  1
  N  N6  1  0.07827690  0.25750024  0.89660724  1
  N  N7  1  0.89655182  0.25242082  0.09659937  1
  N  N8  1  0.62855324  0.70284522  0.56616016  1
  N  N9  1  0.40724508  0.73555787  0.41102918  1
  N  N10  1  0.08647120  0.76622308  0.89600170  1
  N  N11  1  0.87310561  0.79283345  0.06136504  1
  H  H12  1  0.49869029  0.43354571  0.50999833  1
  H  H13  1  0.66397612  0.31683119  0.67987376  1
  H  H14  1  0.62480916  0.13965007  0.59969337  1
  H  H15  1  0.34759510  0.30020727  0.33007881  1
  H  H16  1  0.40419836  0.12797907  0.40231311  1
  H  H17  1  0.99875647  0.06742251  0.00826327  1
  H  H18  1  0.14756525  0.19744069  0.82421726  1
  H  H19  1  0.08520533  0.37090386  0.88789971  1
  H  H20  1  0.83344823  0.18822567  0.17485477  1
  H  H21  1  0.87446714  0.36375375  0.09262705  1
  H  H22  1  0.47540779  0.87405324  0.58803385  1
  H  H23  1  0.69989664  0.74905774  0.65005647  1
  H  H24  1  0.67229721  0.61726896  0.50424576  1
  H  H25  1  0.31154447  0.79887856  0.38708337  1
  H  H26  1  0.42292018  0.64530052  0.34123401  1
  H  H27  1  0.05268052  0.64596110  0.09362936  1
  H  H28  1  0.19070097  0.71523623  0.87339146  1
  H  H29  1  0.05078288  0.84455251  0.81973765  1
  H  H30  1  0.81142015  0.74845641  0.15232022  1
  H  H31  1  0.81340391  0.86229892  0.99157939  1
  Cu  Cu32  1  0.44992181  0.99746321  0.13509253  1
  Cu  Cu33  1  0.09314413  0.50109227  0.59882306  1
  Ir  Ir34  1  0.00089234  0.99969219  0.49285074  1
  Ir  Ir35  1  0.49935333  0.49727326  0.00355269  1
  Br  Br36  1  0.50220433  0.21268260  0.98172306  1
  Br  Br37  1  0.17840670  0.99338913  0.25300348  1
  Br  Br38  1  0.74229346  0.99850044  0.33118028  1
  Br  Br39  1  0.98868669  0.28416754  0.47590923  1
  Br  Br40  1  0.24083642  0.01816015  0.66166226  1
  Br  Br41  1  0.82219912  0.98889567  0.72250646  1
  Br  Br42  1  0.49530509  0.78402786  0.98163901  1
  Br  Br43  1  0.67683280  0.51043360  0.23144228  1
  Br  Br44  1  0.25747692  0.47813984  0.17057613  1
  Br  Br45  1  0.99804686  0.71222017  0.47016728  1
  Br  Br46  1  0.32817761  0.50800234  0.75733918  1
  Br  Br47  1  0.75081705  0.50149171  0.84155236  1
