# generated using pymatgen
data_CuH10RhC2(Br3N2)2
_symmetry_space_group_name_H-M   'P 1'
_cell_length_a   7.67158743
_cell_length_b   10.70884833
_cell_length_c   8.14606458
_cell_angle_alpha   94.93297413
_cell_angle_beta   89.98917310
_cell_angle_gamma   89.99564853
_symmetry_Int_Tables_number   1
_chemical_formula_structural   CuH10RhC2(Br3N2)2
_chemical_formula_sum   'Cu2 H20 Rh2 C4 Br12 N8'
_cell_volume   666.75183614
_cell_formula_units_Z   2
loop_
 _symmetry_equiv_pos_site_id
 _symmetry_equiv_pos_as_xyz
  1  'x, y, z'
loop_
 _atom_site_type_symbol
 _atom_site_label
 _atom_site_symmetry_multiplicity
 _atom_site_fract_x
 _atom_site_fract_y
 _atom_site_fract_z
 _atom_site_occupancy
  C  C0  1  0.53553475  0.28328372  0.50834561  1
  C  C1  1  0.03543124  0.21671138  0.99170576  1
  C  C2  1  0.50962043  0.78443536  0.52397364  1
  C  C3  1  0.00957880  0.71557989  0.97600466  1
  N  N4  1  0.56458927  0.23565463  0.64653893  1
  N  N5  1  0.41179293  0.24083021  0.40122588  1
  N  N6  1  0.06448221  0.26432843  0.85349535  1
  N  N7  1  0.91168172  0.25918949  0.09885807  1
  N  N8  1  0.57342627  0.71601606  0.63557195  1
  N  N9  1  0.38911515  0.74807579  0.41707938  1
  N  N10  1  0.07339445  0.78399694  0.86437514  1
  N  N11  1  0.88900003  0.75191257  0.08286390  1
  H  H12  1  0.61067216  0.36478000  0.47789634  1
  H  H13  1  0.64756040  0.28274741  0.72909111  1
  H  H14  1  0.49601170  0.16021600  0.68106071  1
  H  H15  1  0.43384303  0.25583701  0.27869064  1
  H  H16  1  0.35668149  0.15438337  0.41417666  1
  H  H17  1  0.11056679  0.13521744  0.02214965  1
  H  H18  1  0.14746554  0.21721425  0.77091378  1
  H  H19  1  0.99587273  0.33975093  0.81896748  1
  H  H20  1  0.93372490  0.24416861  0.22139002  1
  H  H21  1  0.85656326  0.34564329  0.08595177  1
  H  H22  1  0.56119915  0.87881917  0.52043312  1
  H  H23  1  0.66609491  0.75345484  0.71419935  1
  H  H24  1  0.52464250  0.62998118  0.65630526  1
  H  H25  1  0.34368616  0.80859676  0.33663636  1
  H  H26  1  0.33823229  0.65962554  0.40506757  1
  H  H27  1  0.06123553  0.62121648  0.97958272  1
  H  H28  1  0.16614196  0.74658266  0.78578932  1
  H  H29  1  0.02454111  0.87001562  0.84361609  1
  H  H30  1  0.84357618  0.69139272  0.16332174  1
  H  H31  1  0.83802012  0.84034635  0.09484582  1
  Cu  Cu32  1  0.72079311  0.11412427  0.03657183  1
  Cu  Cu33  1  0.22085170  0.38592679  0.46350005  1
  Rh  Rh34  1  0.97730775  0.01288742  0.48536017  1
  Rh  Rh35  1  0.47725907  0.48711101  0.01461065  1
  Br  Br36  1  0.46611472  0.24565538  0.01324401  1
  Br  Br37  1  0.17499742  0.99226868  0.24381716  1
  Br  Br38  1  0.71138092  0.00902078  0.29024808  1
  Br  Br39  1  0.96620215  0.25434971  0.48677135  1
  Br  Br40  1  0.24212676  0.01736400  0.66773129  1
  Br  Br41  1  0.77892929  0.00525886  0.76119812  1
  Br  Br42  1  0.46635485  0.71848803  0.02205001  1
  Br  Br43  1  0.67489806  0.50772626  0.25612570  1
  Br  Br44  1  0.21131623  0.49099922  0.20981551  1
  Br  Br45  1  0.96643535  0.78151127  0.47788436  1
  Br  Br46  1  0.27895384  0.49472660  0.73886088  1
  Br  Br47  1  0.74211900  0.48264061  0.83219184  1
