# generated using pymatgen
data_YCuH10C2(Br3N2)2
_symmetry_space_group_name_H-M   'P 1'
_cell_length_a   8.05607296
_cell_length_b   10.34651517
_cell_length_c   8.38440951
_cell_angle_alpha   90.07586481
_cell_angle_beta   89.99696752
_cell_angle_gamma   89.99755551
_symmetry_Int_Tables_number   1
_chemical_formula_structural   YCuH10C2(Br3N2)2
_chemical_formula_sum   'Y2 Cu2 H20 C4 Br12 N8'
_cell_volume   698.85904403
_cell_formula_units_Z   2
loop_
 _symmetry_equiv_pos_site_id
 _symmetry_equiv_pos_as_xyz
  1  'x, y, z'
loop_
 _atom_site_type_symbol
 _atom_site_label
 _atom_site_symmetry_multiplicity
 _atom_site_fract_x
 _atom_site_fract_y
 _atom_site_fract_z
 _atom_site_occupancy
  C  C0  1  0.49637256  0.29304649  0.49837608  1
  C  C1  1  0.99643319  0.20696254  0.00157542  1
  C  C2  1  0.50392413  0.79015971  0.50178585  1
  C  C3  1  0.00385193  0.70983155  0.99822545  1
  N  N4  1  0.59002881  0.23786135  0.60605194  1
  N  N5  1  0.40782071  0.23339989  0.39013609  1
  N  N6  1  0.09010182  0.26217323  0.89394119  1
  N  N7  1  0.90788233  0.26659959  0.10985630  1
  N  N8  1  0.59561258  0.73054833  0.60740769  1
  N  N9  1  0.40692774  0.73530544  0.39642099  1
  N  N10  1  0.09556001  0.76942485  0.89260968  1
  N  N11  1  0.90689419  0.76469444  0.10361382  1
  H  H12  1  0.49119430  0.39811194  0.49888815  1
  H  H13  1  0.65703584  0.29484352  0.68243675  1
  H  H14  1  0.60153052  0.14018384  0.61908548  1
  H  H15  1  0.33676882  0.28732416  0.31402052  1
  H  H16  1  0.40510458  0.13549176  0.37602133  1
  H  H17  1  0.99122360  0.10190615  0.00100370  1
  H  H18  1  0.15710155  0.20519970  0.81752241  1
  H  H19  1  0.10163160  0.35984944  0.88095780  1
  H  H20  1  0.83681718  0.21265794  0.18593681  1
  H  H21  1  0.90519825  0.36449625  0.12402264  1
  H  H22  1  0.50937987  0.89519708  0.50148770  1
  H  H23  1  0.66577297  0.78487930  0.68401490  1
  H  H24  1  0.60197906  0.63257552  0.61872126  1
  H  H25  1  0.34134626  0.79281005  0.31966579  1
  H  H26  1  0.39085501  0.63785351  0.38603178  1
  H  H27  1  0.00924396  0.60478931  0.99848529  1
  H  H28  1  0.16569688  0.71508318  0.81598849  1
  H  H29  1  0.10198636  0.86739763  0.88133495  1
  H  H30  1  0.84128697  0.70719574  0.18035776  1
  H  H31  1  0.89086988  0.86215442  0.11404393  1
  Cu  Cu32  1  0.49324337  -0.00022997  0.99807161  1
  Cu  Cu33  1  0.99327997  0.50024370  0.50208583  1
  Y  Y34  1  0.00078479  0.00035668  0.49779935  1
  Y  Y35  1  0.50078980  0.49965672  0.00221721  1
  Br  Br36  1  0.50022311  0.22743235  0.99861757  1
  Br  Br37  1  0.20618424  0.98660763  0.22820151  1
  Br  Br38  1  0.72729548  0.01396434  0.29491006  1
  Br  Br39  1  1.00018245  0.27257882  0.50137460  1
  Br  Br40  1  0.27565806  0.01400620  0.70007817  1
  Br  Br41  1  0.79290253  0.98720064  0.76451570  1
  Br  Br42  1  0.50197242  0.77200868  0.00096540  1
  Br  Br43  1  0.70619675  0.51338562  0.27178086  1
  Br  Br44  1  0.22729375  0.48606430  0.20507298  1
  Br  Br45  1  0.00199297  0.72799952  0.49901010  1
  Br  Br46  1  0.29292235  0.51281005  0.73546144  1
  Br  Br47  1  0.77566386  0.48596988  0.79991446  1
