# generated using pymatgen
data_SrH6CI3N
_symmetry_space_group_name_H-M   'P 1'
_cell_length_a   8.78682709
_cell_length_b   12.69316519
_cell_length_c   8.54336198
_cell_angle_alpha   89.99971476
_cell_angle_beta   89.99495871
_cell_angle_gamma   89.99906829
_symmetry_Int_Tables_number   1
_chemical_formula_structural   SrH6CI3N
_chemical_formula_sum   'Sr4 H24 C4 I12 N4'
_cell_volume   952.86377837
_cell_formula_units_Z   4
loop_
 _symmetry_equiv_pos_site_id
 _symmetry_equiv_pos_as_xyz
  1  'x, y, z'
loop_
 _atom_site_type_symbol
 _atom_site_label
 _atom_site_symmetry_multiplicity
 _atom_site_fract_x
 _atom_site_fract_y
 _atom_site_fract_z
 _atom_site_occupancy
  C  C0  1  0.39923671  0.25001118  0.41707858  1
  C  C1  1  0.89935120  0.25001188  0.08290532  1
  C  C2  1  0.60075471  0.74999206  0.58292815  1
  C  C3  1  0.10065513  0.74999096  0.91710033  1
  N  N4  1  0.53730659  0.25000365  0.51744112  1
  N  N5  1  0.03741133  0.25000163  0.98250297  1
  N  N6  1  0.46268035  0.74999804  0.48257210  1
  N  N7  1  0.96259598  0.74999409  0.01750383  1
  H  H8  1  0.43489473  0.25001360  0.29413657  1
  H  H9  1  0.33275786  0.17909078  0.44224583  1
  H  H10  1  0.33276258  0.32093311  0.44225431  1
  H  H11  1  0.60314079  0.18351889  0.49353797  1
  H  H12  1  0.60314666  0.31648673  0.49354267  1
  H  H13  1  0.51069949  0.25000300  0.63664831  1
  H  H14  1  0.93502120  0.25001574  0.20583672  1
  H  H15  1  0.83286906  0.17909039  0.05776215  1
  H  H16  1  0.83287758  0.32093448  0.05774702  1
  H  H17  1  0.10324705  0.18351589  0.00639090  1
  H  H18  1  0.10325519  0.31648220  0.00638133  1
  H  H19  1  0.01079489  0.24999946  0.86330267  1
  H  H20  1  0.56510219  0.74999045  0.70587164  1
  H  H21  1  0.66722666  0.67906928  0.55775101  1
  H  H22  1  0.66723308  0.82091171  0.55775474  1
  H  H23  1  0.39684675  0.81648291  0.50647672  1
  H  H24  1  0.39684131  0.68351524  0.50647427  1
  H  H25  1  0.48928312  0.74999844  0.36336364  1
  H  H26  1  0.06498287  0.74999203  0.79416866  1
  H  H27  1  0.16713508  0.82091192  0.94224861  1
  H  H28  1  0.16713101  0.67906760  0.94224958  1
  H  H29  1  0.89675840  0.81647893  0.99362019  1
  H  H30  1  0.89675342  0.68351249  0.99362120  1
  H  H31  1  0.98921264  0.74999338  0.13670342  1
  Sr  Sr32  1  0.50003293  0.00000450  0.00000211  1
  Sr  Sr33  1  0.99999238  0.50000662  0.50002047  1
  Sr  Sr34  1  0.00001849  0.00000694  0.49999708  1
  Sr  Sr35  1  0.49998277  0.50000230  0.00002843  1
  I  I36  1  0.47057205  0.25000412  0.93121652  1
  I  I37  1  0.17383929  0.01899176  0.16876951  1
  I  I38  1  0.67384054  0.01899251  0.33121943  1
  I  I39  1  0.97051233  0.25000560  0.56877012  1
  I  I40  1  0.32618183  0.98101578  0.66881007  1
  I  I41  1  0.82623265  0.98101655  0.83124165  1
  I  I42  1  0.52943922  0.75000389  0.06879966  1
  I  I43  1  0.67381920  0.48101595  0.33122600  1
  I  I44  1  0.17377659  0.48101597  0.16877594  1
  I  I45  1  0.02948510  0.75000449  0.43123811  1
  I  I46  1  0.32616599  0.51898490  0.66881414  1
  I  I47  1  0.82616675  0.51899428  0.83124483  1
