# generated using pymatgen
data_TlPH12C2(I3N)2
_symmetry_space_group_name_H-M   'P 1'
_cell_length_a   8.49732724
_cell_length_b   12.12868924
_cell_length_c   8.32206859
_cell_angle_alpha   86.56915496
_cell_angle_beta   90.00148377
_cell_angle_gamma   90.03299998
_symmetry_Int_Tables_number   1
_chemical_formula_structural   TlPH12C2(I3N)2
_chemical_formula_sum   'Tl2 P2 H24 C4 I12 N4'
_cell_volume   856.14706195
_cell_formula_units_Z   2
loop_
 _symmetry_equiv_pos_site_id
 _symmetry_equiv_pos_as_xyz
  1  'x, y, z'
loop_
 _atom_site_type_symbol
 _atom_site_label
 _atom_site_symmetry_multiplicity
 _atom_site_fract_x
 _atom_site_fract_y
 _atom_site_fract_z
 _atom_site_occupancy
  C  C0  1  0.39890704  0.24947162  0.41517754  1
  C  C1  1  0.89991170  0.25061483  0.08576500  1
  C  C2  1  0.60108976  0.75053214  0.58483806  1
  C  C3  1  0.10009467  0.74938701  0.91424470  1
  N  N4  1  0.53981719  0.24775223  0.52062472  1
  N  N5  1  0.04026197  0.25225853  0.97955549  1
  N  N6  1  0.46017771  0.75225310  0.47939346  1
  N  N7  1  0.95974357  0.74773979  0.02045319  1
  H  H8  1  0.43760661  0.25202522  0.28949834  1
  H  H9  1  0.33055533  0.17427112  0.44292075  1
  H  H10  1  0.32893809  0.32255361  0.43761918  1
  H  H11  1  0.60901237  0.17965687  0.49918466  1
  H  H12  1  0.60787918  0.31837464  0.49648522  1
  H  H13  1  0.51030222  0.24352269  0.64276240  1
  H  H14  1  0.93932368  0.24808416  0.21122622  1
  H  H15  1  0.82962564  0.17753464  0.06379729  1
  H  H16  1  0.83162142  0.32583183  0.05841865  1
  H  H17  1  0.10825673  0.18163319  0.00338579  1
  H  H18  1  0.10972779  0.32035145  0.00055646  1
  H  H19  1  0.01012675  0.25645614  0.85756234  1
  H  H20  1  0.56239173  0.74798003  0.71051815  1
  H  H21  1  0.67105608  0.67744915  0.56239676  1
  H  H22  1  0.66944321  0.82573162  0.55709331  1
  H  H23  1  0.39098421  0.82034868  0.50083452  1
  H  H24  1  0.39211549  0.68163067  0.50353314  1
  H  H25  1  0.48969172  0.75648268  0.35725497  1
  H  H26  1  0.06068381  0.75191957  0.78878317  1
  H  H27  1  0.17037932  0.82246722  0.93621620  1
  H  H28  1  0.16838606  0.67417012  0.94158847  1
  H  H29  1  0.89174678  0.81836438  0.99662442  1
  H  H30  1  0.89028033  0.67964588  0.99944924  1
  H  H31  1  0.98987758  0.74354126  0.14244658  1
  P  P32  1  0.50000283  0.00000285  0.00001129  1
  P  P33  1  0.99999685  0.50000212  0.49999744  1
  Tl  Tl34  1  0.00000288  0.00000215  0.50001022  1
  Tl  Tl35  1  0.50000153  0.50000527  0.99999418  1
  I  I36  1  0.47589844  0.22998346  0.94514070  1
  I  I37  1  0.21042689  0.00162965  0.16176783  1
  I  I38  1  0.65838307  0.01711462  0.29476143  1
  I  I39  1  0.97531552  0.27004219  0.55529616  1
  I  I40  1  0.34161992  0.98289223  0.70525714  1
  I  I41  1  0.78957953  0.99837362  0.83825078  1
  I  I42  1  0.52410654  0.77002467  0.05487871  1
  I  I43  1  0.71060627  0.49822699  0.33789235  1
  I  I44  1  0.15871629  0.48296804  0.20540723  1
  I  I45  1  0.02467804  0.72996191  0.44471072  1
  I  I46  1  0.28939074  0.50177720  0.66211089  1
  I  I47  1  0.84128268  0.51703527  0.79460115  1
