# generated using pymatgen
data_CuAsH10C2(Br3N2)2
_symmetry_space_group_name_H-M   'P 1'
_cell_length_a   7.88809447
_cell_length_b   10.88917164
_cell_length_c   8.28436642
_cell_angle_alpha   90.81620542
_cell_angle_beta   90.00132326
_cell_angle_gamma   89.99004074
_symmetry_Int_Tables_number   1
_chemical_formula_structural   CuAsH10C2(Br3N2)2
_chemical_formula_sum   'Cu2 As2 H20 C4 Br12 N8'
_cell_volume   711.51190617
_cell_formula_units_Z   2
loop_
 _symmetry_equiv_pos_site_id
 _symmetry_equiv_pos_as_xyz
  1  'x, y, z'
loop_
 _atom_site_type_symbol
 _atom_site_label
 _atom_site_symmetry_multiplicity
 _atom_site_fract_x
 _atom_site_fract_y
 _atom_site_fract_z
 _atom_site_occupancy
  C  C0  1  0.49507299  0.28876808  0.51173251  1
  C  C1  1  0.99512408  0.21123184  0.98817832  1
  C  C2  1  0.50471601  0.78623431  0.50467662  1
  C  C3  1  0.00468335  0.71376829  0.99527648  1
  N  N4  1  0.58369409  0.23449535  0.62328413  1
  N  N5  1  0.41334400  0.23339336  0.39375848  1
  N  N6  1  0.08385420  0.26554754  0.87676701  1
  N  N7  1  0.91347328  0.26653763  0.10626115  1
  N  N8  1  0.58814956  0.72759881  0.61636540  1
  N  N9  1  0.40092205  0.73636556  0.39935622  1
  N  N10  1  0.08814476  0.77243596  0.88366231  1
  N  N11  1  0.90093540  0.76361066  0.10066758  1
  H  H12  1  0.48640412  0.38858555  0.51873956  1
  H  H13  1  0.64423736  0.28743141  0.70809689  1
  H  H14  1  0.60325301  0.14176434  0.62805075  1
  H  H15  1  0.35046179  0.28445087  0.31032370  1
  H  H16  1  0.41795305  0.14084130  0.37380280  1
  H  H17  1  0.98628152  0.11142403  0.98092139  1
  H  H18  1  0.14433680  0.21265573  0.79185195  1
  H  H19  1  0.10355231  0.35826480  0.87220545  1
  H  H20  1  0.85046514  0.21544324  0.18955410  1
  H  H21  1  0.91827249  0.35906015  0.12644947  1
  H  H22  1  0.52489290  0.88503102  0.49815097  1
  H  H23  1  0.66261708  0.77807957  0.69372656  1
  H  H24  1  0.57616490  0.63579552  0.63607035  1
  H  H25  1  0.34270383  0.79107878  0.31721524  1
  H  H26  1  0.37135433  0.64496552  0.39466823  1
  H  H27  1  0.02479434  0.61494703  0.00165348  1
  H  H28  1  0.16260234  0.72196971  0.80624633  1
  H  H29  1  0.07624159  0.86426089  0.86408088  1
  H  H30  1  0.84268753  0.70886718  0.18273592  1
  H  H31  1  0.87142722  0.85503247  0.10549398  1
  Cu  Cu32  1  0.63237289  0.06456683  0.00578441  1
  Cu  Cu33  1  0.13237968  0.43541330  0.49423127  1
  As  As34  1  0.01452840  0.99206465  0.47951767  1
  As  As35  1  0.51454744  0.50796410  0.02049001  1
  Br  Br36  1  0.46721550  0.24288124  0.00422181  1
  Br  Br37  1  0.19668043  0.99129793  0.23436169  1
  Br  Br38  1  0.70867247  0.00926683  0.27519338  1
  Br  Br39  1  0.96714717  0.25717894  0.49584273  1
  Br  Br40  1  0.25609978  0.01274413  0.67964626  1
  Br  Br41  1  0.76510136  0.97803130  0.77652556  1
  Br  Br42  1  0.49293599  0.73397154  0.00816460  1
  Br  Br43  1  0.69669459  0.50870191  0.26563821  1
  Br  Br44  1  0.20861171  0.49077278  0.22482600  1
  Br  Br45  1  0.99293829  0.76607084  0.49182867  1
  Br  Br46  1  0.26518132  0.52198401  0.72342587  1
  Br  Br47  1  0.75609491  0.48721611  0.82038243  1
