# generated using pymatgen
data_GaCuH10C2(Br3N2)2
_symmetry_space_group_name_H-M   'P 1'
_cell_length_a   8.18659481
_cell_length_b   10.99508534
_cell_length_c   7.69737771
_cell_angle_alpha   91.32173543
_cell_angle_beta   90.23652652
_cell_angle_gamma   89.97763207
_symmetry_Int_Tables_number   1
_chemical_formula_structural   GaCuH10C2(Br3N2)2
_chemical_formula_sum   'Ga2 Cu2 H20 C4 Br12 N8'
_cell_volume   692.66845802
_cell_formula_units_Z   2
loop_
 _symmetry_equiv_pos_site_id
 _symmetry_equiv_pos_as_xyz
  1  'x, y, z'
loop_
 _atom_site_type_symbol
 _atom_site_label
 _atom_site_symmetry_multiplicity
 _atom_site_fract_x
 _atom_site_fract_y
 _atom_site_fract_z
 _atom_site_occupancy
  C  C0  1  0.49945238  0.28668844  0.49606597  1
  C  C1  1  0.99951175  0.21354272  0.00378466  1
  C  C2  1  0.50784090  0.79101485  0.48502918  1
  C  C3  1  0.00649182  0.70867069  0.01402829  1
  N  N4  1  0.61496449  0.22899160  0.57948294  1
  N  N5  1  0.38667351  0.23642531  0.39752077  1
  N  N6  1  0.11399732  0.27111673  0.91976661  1
  N  N7  1  0.88671606  0.26396010  0.10119946  1
  N  N8  1  0.61491728  0.73732194  0.58424543  1
  N  N9  1  0.39132507  0.73610728  0.39696189  1
  N  N10  1  0.11372384  0.76213901  0.91574129  1
  N  N11  1  0.89125178  0.76399433  0.10247936  1
  H  H12  1  0.49623011  0.38543573  0.51102242  1
  H  H13  1  0.69627017  0.27812619  0.65307385  1
  H  H14  1  0.63037216  0.13705117  0.57322435  1
  H  H15  1  0.30137788  0.29217024  0.34252511  1
  H  H16  1  0.37965604  0.14519842  0.36957774  1
  H  H17  1  0.99725840  0.11471024  0.99062680  1
  H  H18  1  0.19560220  0.22187607  0.84745280  1
  H  H19  1  0.12831964  0.36319254  0.92398084  1
  H  H20  1  0.80201371  0.20820927  0.15644273  1
  H  H21  1  0.87906457  0.35529733  0.12783798  1
  H  H22  1  0.51819852  0.88925982  0.47285069  1
  H  H23  1  0.69851041  0.78886056  0.65195752  1
  H  H24  1  0.61778034  0.64548768  0.59811636  1
  H  H25  1  0.31524125  0.78809148  0.32343018  1
  H  H26  1  0.36839530  0.64473441  0.39988224  1
  H  H27  1  0.01536136  0.61026651  0.02473879  1
  H  H28  1  0.19665095  0.71044191  0.84799669  1
  H  H29  1  0.11848899  0.85416688  0.90463964  1
  H  H30  1  0.81496172  0.71228228  0.17530951  1
  H  H31  1  0.86977753  0.85561469  0.10090858  1
  Cu  Cu32  1  0.43414525  0.96857537  0.03489938  1
  Cu  Cu33  1  0.93498171  0.52972152  0.47009415  1
  Ga  Ga34  1  0.03826448  0.98440068  0.56585892  1
  Ga  Ga35  1  0.53810573  0.51581927  0.94041679  1
  Br  Br36  1  0.50324568  0.30534299  0.99861522  1
  Br  Br37  1  0.19692017  0.97944955  0.22760218  1
  Br  Br38  1  0.66264961  0.01910166  0.21314782  1
  Br  Br39  1  0.00330892  0.19314390  0.49982145  1
  Br  Br40  1  0.30817691  0.00846031  0.74269464  1
  Br  Br41  1  0.80902911  0.97946879  0.77208786  1
  Br  Br42  1  0.51528825  0.73536867  0.99531435  1
  Br  Br43  1  0.69734685  0.52087274  0.26912589  1
  Br  Br44  1  0.16028166  0.48160815  0.28838215  1
  Br  Br45  1  0.01564304  0.76682896  0.50329900  1
  Br  Br46  1  0.30858483  0.52077455  0.73034405  1
  Br  Br47  1  0.80764967  0.49067945  0.75650022  1
