# generated using pymatgen
data_ZnH10PbC2(Br3N2)2
_symmetry_space_group_name_H-M   'P 1'
_cell_length_a   7.18649037
_cell_length_b   11.97118717
_cell_length_c   8.90599932
_cell_angle_alpha   88.00619613
_cell_angle_beta   89.98795723
_cell_angle_gamma   90.00234039
_symmetry_Int_Tables_number   1
_chemical_formula_structural   ZnH10PbC2(Br3N2)2
_chemical_formula_sum   'Zn2 H20 Pb2 C4 Br12 N8'
_cell_volume   765.72656267
_cell_formula_units_Z   2
loop_
 _symmetry_equiv_pos_site_id
 _symmetry_equiv_pos_as_xyz
  1  'x, y, z'
loop_
 _atom_site_type_symbol
 _atom_site_label
 _atom_site_symmetry_multiplicity
 _atom_site_fract_x
 _atom_site_fract_y
 _atom_site_fract_z
 _atom_site_occupancy
  C  C0  1  0.44574862  0.30108758  0.48789937  1
  C  C1  1  0.94602364  0.19886275  0.01196026  1
  C  C2  1  0.54871515  0.80726656  0.52871694  1
  C  C3  1  0.04868775  0.69275947  0.97138078  1
  N  N4  1  0.52826136  0.27360152  0.61480190  1
  N  N5  1  0.43870339  0.23818001  0.36975904  1
  N  N6  1  0.02858699  0.22661056  0.88513542  1
  N  N7  1  0.93862351  0.26163491  0.13021494  1
  N  N8  1  0.55836577  0.74207532  0.64984157  1
  N  N9  1  0.47606530  0.77895965  0.40021055  1
  N  N10  1  0.05838235  0.75795449  0.85025596  1
  N  N11  1  0.97597828  0.72105787  0.09989142  1
  H  H12  1  0.37754652  0.38262836  0.48022688  1
  H  H13  1  0.53862088  0.33062890  0.69726111  1
  H  H14  1  0.59743110  0.19993457  0.63172784  1
  H  H15  1  0.37029148  0.26775690  0.27614616  1
  H  H16  1  0.51385727  0.16529562  0.36081633  1
  H  H17  1  0.87812456  0.11724132  0.01943190  1
  H  H18  1  0.03929501  0.16967846  0.80254556  1
  H  H19  1  0.09744005  0.30042512  0.86834818  1
  H  H20  1  0.87009330  0.23188876  0.22369812  1
  H  H21  1  0.01356166  0.33459280  0.13933539  1
  H  H22  1  0.60403937  0.89174192  0.53527196  1
  H  H23  1  0.61161678  0.77242038  0.74655578  1
  H  H24  1  0.51305286  0.66111536  0.65238095  1
  H  H25  1  0.48098561  0.83292569  0.30907469  1
  H  H26  1  0.41701048  0.70280907  0.38527931  1
  H  H27  1  0.10403453  0.60829051  0.96482583  1
  H  H28  1  0.11163258  0.72761451  0.75352482  1
  H  H29  1  0.01299216  0.83889634  0.84771196  1
  H  H30  1  0.98085536  0.66708957  0.19102252  1
  H  H31  1  0.91689669  0.79720009  0.11482445  1
  Zn  Zn32  1  0.45635625  0.04377398  0.92647462  1
  Zn  Zn33  1  0.95625600  0.45621277  0.57350400  1
  Pb  Pb34  1  0.07592177  0.01389688  0.39901991  1
  Pb  Pb35  1  0.57587639  0.48607031  0.10106605  1
  Br  Br36  1  0.47023158  0.23859437  0.98902102  1
  Br  Br37  1  0.23995856  0.95559467  0.10618942  1
  Br  Br38  1  0.70461010  0.02392668  0.28418379  1
  Br  Br39  1  0.96999248  0.26137929  0.51096050  1
  Br  Br40  1  0.27197324  0.02295705  0.69505542  1
  Br  Br41  1  0.74722969  0.97568670  0.83315656  1
  Br  Br42  1  0.51334745  0.70738452  0.03039986  1
  Br  Br43  1  0.73987567  0.54440112  0.39386625  1
  Br  Br44  1  0.20440333  0.47595723  0.21568163  1
  Br  Br45  1  0.01342136  0.79258106  0.46973058  1
  Br  Br46  1  0.24716396  0.52427009  0.66675501  1
  Br  Br47  1  0.77188115  0.47715128  0.80496222  1
