# generated using pymatgen
data_ZnHgH10C2(Br3N2)2
_symmetry_space_group_name_H-M   'P 1'
_cell_length_a   6.80410237
_cell_length_b   13.47292070
_cell_length_c   8.39242798
_cell_angle_alpha   89.97493949
_cell_angle_beta   89.99490869
_cell_angle_gamma   89.99953768
_symmetry_Int_Tables_number   1
_chemical_formula_structural   ZnHgH10C2(Br3N2)2
_chemical_formula_sum   'Zn2 Hg2 H20 C4 Br12 N8'
_cell_volume   769.34329378
_cell_formula_units_Z   2
loop_
 _symmetry_equiv_pos_site_id
 _symmetry_equiv_pos_as_xyz
  1  'x, y, z'
loop_
 _atom_site_type_symbol
 _atom_site_label
 _atom_site_symmetry_multiplicity
 _atom_site_fract_x
 _atom_site_fract_y
 _atom_site_fract_z
 _atom_site_occupancy
  C  C0  1  0.45877677  0.33032088  0.47980786  1
  C  C1  1  0.95894317  0.16966642  0.02016112  1
  C  C2  1  0.53983550  0.83104628  0.51983010  1
  C  C3  1  0.03967941  0.66893152  0.98025677  1
  N  N4  1  0.49869318  0.32290838  0.63201279  1
  N  N5  1  0.49768700  0.26278808  0.37207581  1
  N  N6  1  0.99879500  0.17716719  0.86793585  1
  N  N7  1  0.99758336  0.23719574  0.12791969  1
  N  N8  1  0.50474626  0.76205253  0.62601588  1
  N  N9  1  0.49786981  0.82483736  0.36778902  1
  N  N10  1  0.00466781  0.73790740  0.87396048  1
  N  N11  1  0.99766292  0.67521762  0.13224006  1
  H  H12  1  0.38977232  0.39901265  0.44005581  1
  H  H13  1  0.46168769  0.38088392  0.70382394  1
  H  H14  1  0.56271383  0.26285638  0.68462601  1
  H  H15  1  0.45973950  0.27428996  0.25573678  1
  H  H16  1  0.56580379  0.19697009  0.39829654  1
  H  H17  1  0.89024663  0.10087853  0.05986185  1
  H  H18  1  0.96203209  0.11918666  0.79607979  1
  H  H19  1  0.06250698  0.23731746  0.81535924  1
  H  H20  1  0.95970933  0.22561492  0.24426379  1
  H  H21  1  0.06542500  0.30310135  0.10174484  1
  H  H22  1  0.60633047  0.89994792  0.56172844  1
  H  H23  1  0.54149103  0.77305061  0.74301235  1
  H  H24  1  0.44012847  0.69566925  0.59794114  1
  H  H25  1  0.52472512  0.88425320  0.29551213  1
  H  H26  1  0.43292133  0.76453568  0.31677504  1
  H  H27  1  0.10614228  0.60000917  0.93840979  1
  H  H28  1  0.04147826  0.72685375  0.75700153  1
  H  H29  1  0.94009038  0.80430236  0.90197637  1
  H  H30  1  0.02443142  0.61582305  0.20461221  1
  H  H31  1  0.93273713  0.73555259  0.18320045  1
  Zn  Zn32  1  0.44398792  0.03676260  0.91780037  1
  Zn  Zn33  1  0.94379952  0.46324234  0.58218971  1
  Hg  Hg34  1  0.03525969  0.96991555  0.47685887  1
  Hg  Hg35  1  0.53508476  0.53005341  0.02321142  1
  Br  Br36  1  0.48516019  0.20879911  0.97891710  1
  Br  Br37  1  0.22781826  0.95021848  0.08863865  1
  Br  Br38  1  0.73815000  0.04632349  0.33154049  1
  Br  Br39  1  0.98503291  0.29120127  0.52107372  1
  Br  Br40  1  0.31528886  0.06274376  0.62384722  1
  Br  Br41  1  0.75051352  0.95848893  0.84212015  1
  Br  Br42  1  0.52187128  0.72075425  0.01775541  1
  Br  Br43  1  0.72762148  0.54975452  0.41134120  1
  Br  Br44  1  0.23790184  0.45367937  0.16849063  1
  Br  Br45  1  0.02203026  0.77921733  0.48226439  1
  Br  Br46  1  0.25030777  0.54150596  0.65787314  1
  Br  Br47  1  0.81513784  0.43725372  0.87615884  1
