# generated using pymatgen
data_ZnH10PtC2(Br3N2)2
_symmetry_space_group_name_H-M   'P 1'
_cell_length_a   7.93629516
_cell_length_b   11.37599353
_cell_length_c   7.91277875
_cell_angle_alpha   89.73734392
_cell_angle_beta   90.00144592
_cell_angle_gamma   90.00247354
_symmetry_Int_Tables_number   1
_chemical_formula_structural   ZnH10PtC2(Br3N2)2
_chemical_formula_sum   'Zn2 H20 Pt2 C4 Br12 N8'
_cell_volume   714.38381444
_cell_formula_units_Z   2
loop_
 _symmetry_equiv_pos_site_id
 _symmetry_equiv_pos_as_xyz
  1  'x, y, z'
loop_
 _atom_site_type_symbol
 _atom_site_label
 _atom_site_symmetry_multiplicity
 _atom_site_fract_x
 _atom_site_fract_y
 _atom_site_fract_z
 _atom_site_occupancy
  C  C0  1  0.49647998  0.29019912  0.49550680  1
  C  C1  1  0.99650021  0.20979904  0.00450226  1
  C  C2  1  0.50327538  0.79054908  0.50512281  1
  C  C3  1  0.00323317  0.70945720  0.99488021  1
  N  N4  1  0.60129326  0.23862807  0.59997158  1
  N  N5  1  0.39502525  0.23658838  0.39053505  1
  N  N6  1  0.10132214  0.26137309  0.90002777  1
  N  N7  1  0.89508537  0.26340982  0.10947490  1
  N  N8  1  0.60782513  0.73664868  0.60738218  1
  N  N9  1  0.39622645  0.73925460  0.40335080  1
  N  N10  1  0.10774866  0.76336254  0.89262604  1
  N  N11  1  0.89617253  0.76074411  0.09667241  1
  H  H12  1  0.49335855  0.38601341  0.49572960  1
  H  H13  1  0.67199262  0.29018535  0.67806044  1
  H  H14  1  0.61817990  0.14968514  0.60753093  1
  H  H15  1  0.32134888  0.28701274  0.31308077  1
  H  H16  1  0.38265495  0.14734789  0.38327981  1
  H  H17  1  0.99337612  0.11399354  0.00424269  1
  H  H18  1  0.17200573  0.20981928  0.82192717  1
  H  H19  1  0.11822386  0.35032309  0.89248819  1
  H  H20  1  0.82140311  0.21298829  0.18693196  1
  H  H21  1  0.88272658  0.35265572  0.11675454  1
  H  H22  1  0.50564617  0.88637732  0.50482671  1
  H  H23  1  0.68714087  0.78673576  0.67877205  1
  H  H24  1  0.61325030  0.64744874  0.62236827  1
  H  H25  1  0.31914664  0.79116928  0.33132950  1
  H  H26  1  0.38669490  0.65026009  0.38909315  1
  H  H27  1  0.00561178  0.61362506  0.99518137  1
  H  H28  1  0.18707244  0.71328668  0.82122442  1
  H  H29  1  0.11316402  0.85256349  0.87763858  1
  H  H30  1  0.81911865  0.70881980  0.16869167  1
  H  H31  1  0.88663755  0.84973370  0.11092622  1
  Zn  Zn32  1  0.49120869  0.00019132  0.00096294  1
  Zn  Zn33  1  0.99131045  0.49980800  0.49899305  1
  Pt  Pt34  1  0.00156058  0.00001875  0.49791967  1
  Pt  Pt35  1  0.50155882  0.49998056  0.00208549  1
  Br  Br36  1  0.50104717  0.19816555  0.99623281  1
  Br  Br37  1  0.19350712  0.98481478  0.25246627  1
  Br  Br38  1  0.75760472  0.01096021  0.30503696  1
  Br  Br39  1  0.00100779  0.30183259  0.50378345  1
  Br  Br40  1  0.24601974  0.01546979  0.69031014  1
  Br  Br41  1  0.80931684  0.98840862  0.74221169  1
  Br  Br42  1  0.50023924  0.80218413  0.00232993  1
  Br  Br43  1  0.69350543  0.51516594  0.24754858  1
  Br  Br44  1  0.25758764  0.48904860  0.19495349  1
  Br  Br45  1  0.00027783  0.69781610  0.49765198  1
  Br  Br46  1  0.30931972  0.51161458  0.75778000  1
  Br  Br47  1  0.74600640  0.48452536  0.80970741  1
