# generated using pymatgen
data_HfZnH10C2(Br3N2)2
_symmetry_space_group_name_H-M   'P 1'
_cell_length_a   7.32002413
_cell_length_b   11.77892890
_cell_length_c   9.15817882
_cell_angle_alpha   92.10398272
_cell_angle_beta   89.99784278
_cell_angle_gamma   89.99673020
_symmetry_Int_Tables_number   1
_chemical_formula_structural   HfZnH10C2(Br3N2)2
_chemical_formula_sum   'Hf2 Zn2 H20 C4 Br12 N8'
_cell_volume   789.10455437
_cell_formula_units_Z   2
loop_
 _symmetry_equiv_pos_site_id
 _symmetry_equiv_pos_as_xyz
  1  'x, y, z'
loop_
 _atom_site_type_symbol
 _atom_site_label
 _atom_site_symmetry_multiplicity
 _atom_site_fract_x
 _atom_site_fract_y
 _atom_site_fract_z
 _atom_site_occupancy
  C  C0  1  0.46881141  0.30128751  0.50546095  1
  C  C1  1  0.96920355  0.19863717  -0.00560584  1
  C  C2  1  0.53380437  0.77676842  0.52322505  1
  C  C3  1  0.03374044  0.72326635  0.97693486  1
  N  N4  1  0.54734046  0.27013552  0.62660326  1
  N  N5  1  0.45152194  0.23704918  0.38642081  1
  N  N6  1  0.04743062  0.23004284  0.87324898  1
  N  N7  1  0.95131170  0.26283226  0.11341456  1
  N  N8  1  0.54843054  0.71186952  0.63663137  1
  N  N9  1  0.46168814  0.74663141  0.39672634  1
  N  N10  1  0.04819492  0.78813026  0.86347058  1
  N  N11  1  0.96150199  0.75337409  0.10339993  1
  H  H12  1  0.41245744  0.38706615  0.50425665  1
  H  H13  1  0.55430505  0.32605916  0.71416913  1
  H  H14  1  0.60467708  0.19165159  0.63704757  1
  H  H15  1  0.39488990  0.26914451  0.29481278  1
  H  H16  1  0.50122140  0.15567937  0.37715057  1
  H  H17  1  0.91367753  0.11265718  -0.00436338  1
  H  H18  1  0.05502174  0.17410851  0.78573389  1
  H  H19  1  0.10406232  0.30871442  0.86279781  1
  H  H20  1  0.89497920  0.23055812  0.20503684  1
  H  H21  1  1.00027488  0.34436968  0.12266063  1
  H  H22  1  0.58541328  0.86349297  0.53566323  1
  H  H23  1  0.60171713  0.74492796  0.73180113  1
  H  H24  1  0.49903724  0.63081034  0.63961177  1
  H  H25  1  0.45759724  0.80413230  0.31616924  1
  H  H26  1  0.41179471  0.66735863  0.37141384  1
  H  H27  1  0.08562951  0.63660138  0.96456889  1
  H  H28  1  0.10163427  0.75509016  0.76834418  1
  H  H29  1  -0.00143451  0.86913424  0.86041241  1
  H  H30  1  0.95758254  0.69589850  0.18399322  1
  H  H31  1  0.91130284  0.83258885  0.12864448  1
  Zn  Zn32  1  0.48654574  0.98424220  0.95415182  1
  Zn  Zn33  1  0.98648073  0.51571016  0.54586944  1
  Hf  Hf34  1  0.00589763  0.00920170  0.46294792  1
  Hf  Hf35  1  0.50577789  0.49077897  0.03711776  1
  Br  Br36  1  0.47371092  0.27135360  0.02337567  1
  Br  Br37  1  0.18824043  0.00394093  0.22392679  1
  Br  Br38  1  0.70435533  -0.00315011  0.30227359  1
  Br  Br39  1  0.97365014  0.22864468  0.47644470  1
  Br  Br40  1  0.29593651  0.02216601  0.62037134  1
  Br  Br41  1  0.80664928  0.00897184  0.70685845  1
  Br  Br42  1  0.50445083  0.71086692  0.02685011  1
  Br  Br43  1  0.68805926  0.49596914  0.27617215  1
  Br  Br44  1  0.20419061  0.50304232  0.19769328  1
  Br  Br45  1  0.00465539  0.78912837  0.47333370  1
  Br  Br46  1  0.30667062  0.49112957  0.79310842  1
  Br  Br47  1  0.79592718  0.47799813  0.87975391  1
