# generated using pymatgen
data_BaZnH10C2(Br3N2)2
_symmetry_space_group_name_H-M   'P 1'
_cell_length_a   8.22528799
_cell_length_b   11.18491812
_cell_length_c   8.21534715
_cell_angle_alpha   89.83861233
_cell_angle_beta   90.00000136
_cell_angle_gamma   90.00011009
_symmetry_Int_Tables_number   1
_chemical_formula_structural   BaZnH10C2(Br3N2)2
_chemical_formula_sum   'Ba2 Zn2 H20 C4 Br12 N8'
_cell_volume   755.80214270
_cell_formula_units_Z   2
loop_
 _symmetry_equiv_pos_site_id
 _symmetry_equiv_pos_as_xyz
  1  'x, y, z'
loop_
 _atom_site_type_symbol
 _atom_site_label
 _atom_site_symmetry_multiplicity
 _atom_site_fract_x
 _atom_site_fract_y
 _atom_site_fract_z
 _atom_site_occupancy
  C  C0  1  0.49362180  0.29118550  0.49599957  1
  C  C1  1  0.99366880  0.20880512  0.00401687  1
  C  C2  1  0.50628339  0.79119040  0.50349906  1
  C  C3  1  0.00622849  0.70881966  0.99648388  1
  N  N4  1  0.59701138  0.23804737  0.59382455  1
  N  N5  1  0.39457705  0.23775068  0.39450069  1
  N  N6  1  0.09708668  0.26194354  0.90622464  1
  N  N7  1  0.89460943  0.26223593  0.10550569  1
  N  N8  1  0.60474261  0.73768708  0.60588658  1
  N  N9  1  0.40423040  0.73807391  0.40461770  1
  N  N10  1  0.10470214  0.76233005  0.89411736  1
  N  N11  1  0.90414785  0.76192262  0.09534121  1
  H  H12  1  0.48913697  0.38850749  0.49973601  1
  H  H13  1  0.67244805  0.28923214  0.66369756  1
  H  H14  1  0.60270198  0.14750091  0.60853174  1
  H  H15  1  0.31530595  0.28916446  0.32855687  1
  H  H16  1  0.39568533  0.14784877  0.37297817  1
  H  H17  1  0.98916977  0.11148313  0.00026067  1
  H  H18  1  0.17253803  0.21076007  0.83636730  1
  H  H19  1  0.10280867  0.35249280  0.89155288  1
  H  H20  1  0.81531709  0.21082253  0.17142177  1
  H  H21  1  0.89572717  0.35213644  0.12704179  1
  H  H22  1  0.50995150  0.88854402  0.49996725  1
  H  H23  1  0.67444040  0.78921024  0.68133498  1
  H  H24  1  0.62033585  0.64716402  0.61115548  1
  H  H25  1  0.33743792  0.78920328  0.32592363  1
  H  H26  1  0.38283195  0.64818090  0.40618774  1
  H  H27  1  0.00991065  0.61146357  1.00001134  1
  H  H28  1  0.17442506  0.71081530  0.81868267  1
  H  H29  1  0.12028595  0.85285468  0.88885884  1
  H  H30  1  0.83734362  0.71078708  0.17401991  1
  H  H31  1  0.88272421  0.85181570  0.09376509  1
  Zn  Zn32  1  0.49692505  0.99995404  0.99760721  1
  Zn  Zn33  1  0.99693045  0.50005941  0.50241340  1
  Ba  Ba34  1  0.00040448  0.00005711  0.49754151  1
  Ba  Ba35  1  0.50040468  0.49995808  0.00246648  1
  Br  Br36  1  0.49941230  0.22183048  0.99395211  1
  Br  Br37  1  0.22949098  0.98771655  0.19050870  1
  Br  Br38  1  0.69227205  0.01492242  0.26993782  1
  Br  Br39  1  0.99938244  0.27818367  0.50608108  1
  Br  Br40  1  0.30704003  0.01094140  0.72803478  1
  Br  Br41  1  0.77089210  0.98643498  0.80487135  1
  Br  Br42  1  0.50286868  0.77817500  0.00475860  1
  Br  Br43  1  0.72947154  0.51228546  0.30950873  1
  Br  Br44  1  0.19226239  0.48507485  0.23004956  1
  Br  Br45  1  0.00290367  0.72183660  0.49519513  1
  Br  Br46  1  0.27089004  0.51358419  0.69513556  1
  Br  Br47  1  0.80703230  0.48906935  0.77197323  1
