# generated using pymatgen
data_ZnSnH10C2(Br3N2)2
_symmetry_space_group_name_H-M   'P 1'
_cell_length_a   7.18543606
_cell_length_b   11.98908101
_cell_length_c   8.90577709
_cell_angle_alpha   87.67429521
_cell_angle_beta   89.99415909
_cell_angle_gamma   90.00503454
_symmetry_Int_Tables_number   1
_chemical_formula_structural   ZnSnH10C2(Br3N2)2
_chemical_formula_sum   'Zn2 Sn2 H20 C4 Br12 N8'
_cell_volume   766.57201486
_cell_formula_units_Z   2
loop_
 _symmetry_equiv_pos_site_id
 _symmetry_equiv_pos_as_xyz
  1  'x, y, z'
loop_
 _atom_site_type_symbol
 _atom_site_label
 _atom_site_symmetry_multiplicity
 _atom_site_fract_x
 _atom_site_fract_y
 _atom_site_fract_z
 _atom_site_occupancy
  C  C0  1  0.44954808  0.29685504  0.49010001  1
  C  C1  1  0.94980372  0.20310713  0.00980230  1
  C  C2  1  0.54063967  0.80513384  0.52792147  1
  C  C3  1  0.04060488  0.69487968  0.97215124  1
  N  N4  1  0.52821600  0.26837250  0.61861270  1
  N  N5  1  0.44173313  0.23344379  0.37321471  1
  N  N6  1  0.02839630  0.23179512  0.88130732  1
  N  N7  1  0.94161980  0.26645731  0.12673052  1
  N  N8  1  0.56750213  0.74106560  0.64888358  1
  N  N9  1  0.47013993  0.77221901  0.40121646  1
  N  N10  1  0.06746042  0.75893422  0.85117111  1
  N  N11  1  0.97005000  0.72779737  0.09884955  1
  H  H12  1  0.38581051  0.37956326  0.48008515  1
  H  H13  1  0.54182870  0.32575132  0.69983185  1
  H  H14  1  0.59287447  0.19348033  0.63755367  1
  H  H15  1  0.37762405  0.26291405  0.27732834  1
  H  H16  1  0.51356817  0.15950733  0.36720091  1
  H  H17  1  0.88647243  0.12027996  0.01975196  1
  H  H18  1  0.04236993  0.17446692  0.80006295  1
  H  H19  1  0.09258192  0.30684728  0.86239691  1
  H  H20  1  0.87752324  0.23684004  0.22256449  1
  H  H21  1  0.01315098  0.34049444  0.13281627  1
  H  H22  1  0.57926295  0.89281192  0.53368422  1
  H  H23  1  0.62089328  0.77532391  0.74277898  1
  H  H24  1  0.54162268  0.65726129  0.65287887  1
  H  H25  1  0.45631287  0.82686463  0.31101198  1
  H  H26  1  0.42646209  0.69236297  0.38795966  1
  H  H27  1  0.07928553  0.60721283  0.96642863  1
  H  H28  1  0.12086562  0.72467663  0.75727822  1
  H  H29  1  0.04149618  0.84272709  0.84714049  1
  H  H30  1  0.95624723  0.67316164  0.18907088  1
  H  H31  1  0.92631128  0.80763839  0.11207925  1
  Zn  Zn32  1  0.45139249  0.04281004  0.93021479  1
  Zn  Zn33  1  0.95128846  0.45717709  0.56980337  1
  Sn  Sn34  1  0.06945070  0.01262292  0.40286572  1
  Sn  Sn35  1  0.56932182  0.48735274  0.09719908  1
  Br  Br36  1  0.47084478  0.23599480  0.99269018  1
  Br  Br37  1  0.24714747  0.95225896  0.12135641  1
  Br  Br38  1  0.71626744  0.02205980  0.28500006  1
  Br  Br39  1  0.97069530  0.26398905  0.50728785  1
  Br  Br40  1  0.25908641  0.01964618  0.70529406  1
  Br  Br41  1  0.74166491  0.97113336  0.84187245  1
  Br  Br42  1  0.51034651  0.70057590  0.02929058  1
  Br  Br43  1  0.74701649  0.54770400  0.37872882  1
  Br  Br44  1  0.21605686  0.47788452  0.21494643  1
  Br  Br45  1  0.01042187  0.79939631  0.47077978  1
  Br  Br46  1  0.24163151  0.52881116  0.65810795  1
  Br  Br47  1  0.75910814  0.48039932  0.79480255  1
