# generated using pymatgen
data_ZnCdH10C2(Br3N2)2
_symmetry_space_group_name_H-M   'P 1'
_cell_length_a   8.31277912
_cell_length_b   10.46298387
_cell_length_c   8.08633278
_cell_angle_alpha   89.67615635
_cell_angle_beta   90.01212896
_cell_angle_gamma   89.99963598
_symmetry_Int_Tables_number   1
_chemical_formula_structural   ZnCdH10C2(Br3N2)2
_chemical_formula_sum   'Zn2 Cd2 H20 C4 Br12 N8'
_cell_volume   703.30946137
_cell_formula_units_Z   2
loop_
 _symmetry_equiv_pos_site_id
 _symmetry_equiv_pos_as_xyz
  1  'x, y, z'
loop_
 _atom_site_type_symbol
 _atom_site_label
 _atom_site_symmetry_multiplicity
 _atom_site_fract_x
 _atom_site_fract_y
 _atom_site_fract_z
 _atom_site_occupancy
  C  C0  1  0.50026370  0.28769602  0.49792314  1
  C  C1  1  1.00026993  0.21231313  0.00205386  1
  C  C2  1  0.50849029  0.79341261  0.49711572  1
  C  C3  1  0.00846342  0.70657586  1.00285514  1
  N  N4  1  0.60496206  0.23209419  0.59586057  1
  N  N5  1  0.40541557  0.23061288  0.39253958  1
  N  N6  1  0.10497731  0.26791234  0.90416362  1
  N  N7  1  0.90545549  0.26939368  0.10742395  1
  N  N8  1  0.60626331  0.73734429  0.60192786  1
  N  N9  1  0.40073821  0.73627990  0.40569953  1
  N  N10  1  0.10620800  0.76265572  0.89806188  1
  N  N11  1  0.90071863  0.76369572  0.09423509  1
  H  H12  1  0.48965928  0.39118368  0.50552463  1
  H  H13  1  0.66884401  0.28676104  0.67696796  1
  H  H14  1  0.62387834  0.13582923  0.60106032  1
  H  H15  1  0.33107211  0.28647152  0.32104144  1
  H  H16  1  0.40330672  0.13440541  0.37427515  1
  H  H17  1  0.98962466  0.10883563  0.99440601  1
  H  H18  1  0.16883831  0.21325459  0.82307454  1
  H  H19  1  0.12393977  0.36417107  0.89903621  1
  H  H20  1  0.83111919  0.21354166  0.17889475  1
  H  H21  1  0.90340891  0.36559581  0.12574199  1
  H  H22  1  0.51969316  0.89655381  0.48369810  1
  H  H23  1  0.68271984  0.79273442  0.67068016  1
  H  H24  1  0.59899755  0.64240914  0.62992840  1
  H  H25  1  0.33164081  0.79020243  0.32742233  1
  H  H26  1  0.38062441  0.63999017  0.40629084  1
  H  H27  1  0.01970045  0.60343843  0.01628048  1
  H  H28  1  0.18267593  0.70728015  0.82934045  1
  H  H29  1  0.09890383  0.85758701  0.87006591  1
  H  H30  1  0.83165363  0.70977035  0.17250128  1
  H  H31  1  0.88058700  0.85998479  0.09363532  1
  Zn  Zn32  1  0.39925347  -0.00061165  0.98540789  1
  Zn  Zn33  1  0.89932846  0.50063008  0.51476600  1
  Cd  Cd34  1  0.98364301  0.00183058  0.50579055  1
  Cd  Cd35  1  0.48365423  0.49825461  0.99445944  1
  Br  Br36  1  0.51569395  0.20779169  0.99713347  1
  Br  Br37  1  0.20277434  0.98463787  0.22354826  1
  Br  Br38  1  0.74647995  0.01606827  0.29327112  1
  Br  Br39  1  0.01572644  0.29221311  0.50284496  1
  Br  Br40  1  0.27255877  0.01487760  0.69622117  1
  Br  Br41  1  0.80904466  0.98267050  0.77431717  1
  Br  Br42  1  0.51389755  0.79087527  0.00305333  1
  Br  Br43  1  0.70280416  0.51534765  0.27637546  1
  Br  Br44  1  0.24637434  0.48392463  0.20677877  1
  Br  Br45  1  0.01391786  0.70913582  0.49689330  1
  Br  Br46  1  0.30915244  0.51732667  0.72579474  1
  Br  Br47  1  0.77260187  0.48510360  0.80372291  1
