# generated using pymatgen
data_ZnH10PdC2(Br3N2)2
_symmetry_space_group_name_H-M   'P 1'
_cell_length_a   7.92089486
_cell_length_b   11.33152694
_cell_length_c   7.90291428
_cell_angle_alpha   89.75926083
_cell_angle_beta   89.99895350
_cell_angle_gamma   90.00040203
_symmetry_Int_Tables_number   1
_chemical_formula_structural   ZnH10PdC2(Br3N2)2
_chemical_formula_sum   'Zn2 H20 Pd2 C4 Br12 N8'
_cell_volume   709.32639586
_cell_formula_units_Z   2
loop_
 _symmetry_equiv_pos_site_id
 _symmetry_equiv_pos_as_xyz
  1  'x, y, z'
loop_
 _atom_site_type_symbol
 _atom_site_label
 _atom_site_symmetry_multiplicity
 _atom_site_fract_x
 _atom_site_fract_y
 _atom_site_fract_z
 _atom_site_occupancy
  C  C0  1  0.49671940  0.28926516  0.49553024  1
  C  C1  1  0.99676966  0.21074329  0.00446160  1
  C  C2  1  0.50300673  0.78942922  0.50443289  1
  C  C3  1  0.00296662  0.71056735  0.99556864  1
  N  N4  1  0.60172547  0.23755646  0.60016766  1
  N  N5  1  0.39522029  0.23536346  0.39034010  1
  N  N6  1  0.10179004  0.26244651  0.89984224  1
  N  N7  1  0.89528555  0.26464777  0.10967709  1
  N  N8  1  0.60753452  0.73544377  0.60710943  1
  N  N9  1  0.39610491  0.73778826  0.40225997  1
  N  N10  1  0.10749155  0.76456450  0.89288841  1
  N  N11  1  0.89605652  0.76219589  0.09774317  1
  H  H12  1  0.49356517  0.38542089  0.49581854  1
  H  H13  1  0.67268381  0.28937850  0.67818181  1
  H  H14  1  0.61866116  0.14827222  0.60761082  1
  H  H15  1  0.32124609  0.28593599  0.31292036  1
  H  H16  1  0.38277819  0.14579588  0.38350466  1
  H  H17  1  0.99356850  0.11458817  0.00415291  1
  H  H18  1  0.17273078  0.21062575  0.82180848  1
  H  H19  1  0.11875346  0.35173186  0.89241466  1
  H  H20  1  0.82129453  0.21407508  0.18708255  1
  H  H21  1  0.88287493  0.35421783  0.11653702  1
  H  H22  1  0.50526308  0.88560764  0.50406683  1
  H  H23  1  0.68658526  0.78586093  0.67888846  1
  H  H24  1  0.61271634  0.64592201  0.62239036  1
  H  H25  1  0.31905678  0.78975216  0.32982130  1
  H  H26  1  0.38672046  0.64844144  0.38828513  1
  H  H27  1  0.00524035  0.61438907  0.99593064  1
  H  H28  1  0.18654929  0.71415597  0.82110758  1
  H  H29  1  0.11264395  0.85408464  0.87760449  1
  H  H30  1  0.81901302  0.71022029  0.17017897  1
  H  H31  1  0.88664804  0.85154389  0.11172183  1
  Zn  Zn32  1  0.49020751  0.00008528  0.00793836  1
  Zn  Zn33  1  0.99063465  0.49991953  0.49212297  1
  Pd  Pd34  1  0.00163422  0.00008138  0.49708106  1
  Pd  Pd35  1  0.50158941  0.49992827  0.00292660  1
  Br  Br36  1  0.50150715  0.19911409  0.99550340  1
  Br  Br37  1  0.19246864  0.98384263  0.24707390  1
  Br  Br38  1  0.75293701  0.01291200  0.30622704  1
  Br  Br39  1  0.00144141  0.30088204  0.50454386  1
  Br  Br40  1  0.24931561  0.01597438  0.68799729  1
  Br  Br41  1  0.81141180  0.98697971  0.74466275  1
  Br  Br42  1  0.50085099  0.80094719  0.00146201  1
  Br  Br43  1  0.69241915  0.51613312  0.25288345  1
  Br  Br44  1  0.25286352  0.48709211  0.19379548  1
  Br  Br45  1  0.00085429  0.69906439  0.49850948  1
  Br  Br46  1  0.31136620  0.51304429  0.75530964  1
  Br  Br47  1  0.74925333  0.48403073  0.81201860  1
