# generated using pymatgen
data_AgPH12C2(I3N)2
_symmetry_space_group_name_H-M   'P 1'
_cell_length_a   8.23262083
_cell_length_b   11.65944586
_cell_length_c   8.12754506
_cell_angle_alpha   88.34938923
_cell_angle_beta   90.00311285
_cell_angle_gamma   90.01415599
_symmetry_Int_Tables_number   1
_chemical_formula_structural   AgPH12C2(I3N)2
_chemical_formula_sum   'Ag2 P2 H24 C4 I12 N4'
_cell_volume   779.82140737
_cell_formula_units_Z   2
loop_
 _symmetry_equiv_pos_site_id
 _symmetry_equiv_pos_as_xyz
  1  'x, y, z'
loop_
 _atom_site_type_symbol
 _atom_site_label
 _atom_site_symmetry_multiplicity
 _atom_site_fract_x
 _atom_site_fract_y
 _atom_site_fract_z
 _atom_site_occupancy
  C  C0  1  0.41478121  0.24788071  0.42168404  1
  C  C1  1  0.91546516  0.25212341  0.07841667  1
  C  C2  1  0.58521793  0.75212447  0.57835860  1
  C  C3  1  0.08455031  0.74787506  0.92157977  1
  N  N4  1  0.56019828  0.24568460  0.52864166  1
  N  N5  1  0.06055747  0.25425869  0.97101904  1
  N  N6  1  0.43978757  0.75430031  0.47141875  1
  N  N7  1  0.93944362  0.74575208  0.02895895  1
  H  H8  1  0.45431044  0.25228414  0.29316738  1
  H  H9  1  0.34465428  0.16964809  0.44546061  1
  H  H10  1  0.34257140  0.32336915  0.44956528  1
  H  H11  1  0.63129346  0.17466619  0.50438178  1
  H  H12  1  0.63092997  0.31816748  0.50516601  1
  H  H13  1  0.53046256  0.24278207  0.65366569  1
  H  H14  1  0.95534492  0.24778084  0.20679233  1
  H  H15  1  0.84309534  0.17662097  0.05079725  1
  H  H16  1  0.84533135  0.33035721  0.05473402  1
  H  H17  1  0.13128240  0.18176133  0.99440408  1
  H  H18  1  0.13182670  0.32527159  0.99504243  1
  H  H19  1  0.03051096  0.25711621  0.84611031  1
  H  H20  1  0.54570560  0.74774874  0.70688186  1
  H  H21  1  0.65742588  0.67662925  0.55050593  1
  H  H22  1  0.65534657  0.83035086  0.55454084  1
  H  H23  1  0.36869614  0.82532256  0.49566482  1
  H  H24  1  0.36905831  0.68182080  0.49493893  1
  H  H25  1  0.46950348  0.75718100  0.34638432  1
  H  H26  1  0.04468469  0.75221620  0.79319933  1
  H  H27  1  0.15693326  0.82337016  0.94920428  1
  H  H28  1  0.15467122  0.66963591  0.94526556  1
  H  H29  1  0.86871744  0.81824658  0.00556098  1
  H  H30  1  0.86817004  0.67474195  0.00492631  1
  H  H31  1  0.96947272  0.74290083  0.15387353  1
  P  P32  1  0.49997661  0.00010226  0.00004744  1
  P  P33  1  0.99988824  0.49995252  0.49986627  1
  Ag  Ag34  1  0.00001731  0.99996842  0.50007906  1
  Ag  Ag35  1  0.49996139  0.50019296  0.99971884  1
  I  I36  1  0.48966106  0.24131839  0.95692290  1
  I  I37  1  0.20946503  0.00433920  0.18980343  1
  I  I38  1  0.69064221  0.00878055  0.29142085  1
  I  I39  1  0.98921317  0.25863047  0.54309832  1
  I  I40  1  0.30931691  0.99124080  0.70852816  1
  I  I41  1  0.79054615  0.99568375  0.81016287  1
  I  I42  1  0.51036251  0.75858655  0.04319549  1
  I  I43  1  0.70957109  0.49563408  0.31013562  1
  I  I44  1  0.19066508  0.49125484  0.20862376  1
  I  I45  1  0.01077771  0.74138054  0.45687879  1
  I  I46  1  0.29061164  0.50431489  0.68999369  1
  I  I47  1  0.80934693  0.50870860  0.79150975  1
