# generated using pymatgen
data_ZrZnH10C2(Br3N2)2
_symmetry_space_group_name_H-M   'P 1'
_cell_length_a   7.31740672
_cell_length_b   11.80410900
_cell_length_c   9.19024341
_cell_angle_alpha   92.53225741
_cell_angle_beta   89.99798122
_cell_angle_gamma   89.97190710
_symmetry_Int_Tables_number   1
_chemical_formula_structural   ZrZnH10C2(Br3N2)2
_chemical_formula_sum   'Zr2 Zn2 H20 C4 Br12 N8'
_cell_volume   793.03631289
_cell_formula_units_Z   2
loop_
 _symmetry_equiv_pos_site_id
 _symmetry_equiv_pos_as_xyz
  1  'x, y, z'
loop_
 _atom_site_type_symbol
 _atom_site_label
 _atom_site_symmetry_multiplicity
 _atom_site_fract_x
 _atom_site_fract_y
 _atom_site_fract_z
 _atom_site_occupancy
  C  C0  1  0.46478596  0.30112180  0.50320136  1
  C  C1  1  0.96546905  0.19880180  -0.00346855  1
  C  C2  1  0.53673927  0.77663174  0.52451645  1
  C  C3  1  0.03649176  0.72342626  0.97574856  1
  N  N4  1  0.54385964  0.27154461  0.62414770  1
  N  N5  1  0.45281896  0.23700005  0.38351274  1
  N  N6  1  0.04423676  0.22864944  0.87560402  1
  N  N7  1  0.95280976  0.26287947  0.11622008  1
  N  N8  1  0.54722643  0.71299609  0.63834336  1
  N  N9  1  0.46269505  0.74684218  0.39878573  1
  N  N10  1  0.04673789  0.78702450  0.86187550  1
  N  N11  1  0.96232407  0.75319075  0.10145604  1
  H  H12  1  0.40328745  0.38541239  0.50289763  1
  H  H13  1  0.54423377  0.32692460  0.71264562  1
  H  H14  1  0.60510566  0.19440302  0.63413625  1
  H  H15  1  0.39569794  0.26812354  0.29213399  1
  H  H16  1  0.50715010  0.15682224  0.37358198  1
  H  H17  1  0.90488553  0.11428849  -0.00316053  1
  H  H18  1  0.04534410  0.17325199  0.78714173  1
  H  H19  1  0.10465059  0.30599566  0.86563960  1
  H  H20  1  0.89599335  0.23157380  0.20759895  1
  H  H21  1  1.00632549  0.34322919  0.12614885  1
  H  H22  1  0.59391925  0.86192357  0.53580488  1
  H  H23  1  0.60238636  0.74597561  0.73280255  1
  H  H24  1  0.49303540  0.63328176  0.64239937  1
  H  H25  1  0.46310827  0.80314349  0.31764987  1
  H  H26  1  0.40739780  0.66884255  0.37454042  1
  H  H27  1  0.09401238  0.63819300  0.96451572  1
  H  H28  1  0.10208930  0.75406773  0.76745052  1
  H  H29  1  -0.00770677  0.86670543  0.85775939  1
  H  H30  1  0.96299833  0.69691809  0.18262167  1
  H  H31  1  0.90665573  0.83113191  0.12565597  1
  Zn  Zn32  1  0.48652374  0.98392747  0.95087073  1
  Zn  Zn33  1  0.98644905  0.51591901  0.54908532  1
  Zr  Zr34  1  0.00941678  0.00855877  0.46080868  1
  Zr  Zr35  1  0.50932137  0.49138517  0.03925997  1
  Br  Br36  1  0.47217393  0.27023880  0.02096375  1
  Br  Br37  1  0.18732139  0.00373009  0.21775872  1
  Br  Br38  1  0.70152784  0.99561129  0.30095630  1
  Br  Br39  1  0.97182803  0.22972903  0.47870046  1
  Br  Br40  1  0.30378822  0.02223871  0.61618196  1
  Br  Br41  1  0.81106874  0.00813944  0.70881454  1
  Br  Br42  1  0.50499737  0.71313359  0.02984233  1
  Br  Br43  1  0.68708977  0.49602950  0.28236327  1
  Br  Br44  1  0.20133621  0.50420845  0.19898466  1
  Br  Br45  1  0.00544593  0.78682915  0.47051452  1
  Br  Br46  1  0.31113868  0.49209554  0.79114031  1
  Br  Br47  1  0.80382765  0.47797224  0.88395185  1
