# generated using pymatgen
data_SrZnH10C2(Br3N2)2
_symmetry_space_group_name_H-M   'P 1'
_cell_length_a   8.11358964
_cell_length_b   10.93081457
_cell_length_c   8.10387025
_cell_angle_alpha   89.81493039
_cell_angle_beta   90.00016780
_cell_angle_gamma   90.00102208
_symmetry_Int_Tables_number   1
_chemical_formula_structural   SrZnH10C2(Br3N2)2
_chemical_formula_sum   'Sr2 Zn2 H20 C4 Br12 N8'
_cell_volume   718.71346116
_cell_formula_units_Z   2
loop_
 _symmetry_equiv_pos_site_id
 _symmetry_equiv_pos_as_xyz
  1  'x, y, z'
loop_
 _atom_site_type_symbol
 _atom_site_label
 _atom_site_symmetry_multiplicity
 _atom_site_fract_x
 _atom_site_fract_y
 _atom_site_fract_z
 _atom_site_occupancy
  C  C0  1  0.49395644  0.29145799  0.49610285  1
  C  C1  1  0.99401296  0.20853575  0.00390412  1
  C  C2  1  0.50580781  0.79147109  0.50349194  1
  C  C3  1  0.00575198  0.70853566  0.99649375  1
  N  N4  1  0.59838798  0.23729857  0.59554473  1
  N  N5  1  0.39391349  0.23658539  0.39331872  1
  N  N6  1  0.09845851  0.26269386  0.90450713  1
  N  N7  1  0.89394459  0.26340863  0.10669380  1
  N  N8  1  0.60575154  0.73663853  0.60677011  1
  N  N9  1  0.40233247  0.73724764  0.40348065  1
  N  N10  1  0.10570891  0.76337709  0.89323458  1
  N  N11  1  0.90224954  0.76274802  0.09648031  1
  H  H12  1  0.48938322  0.39096687  0.49941950  1
  H  H13  1  0.67299015  0.28993026  0.66805467  1
  H  H14  1  0.60719302  0.14459217  0.60818319  1
  H  H15  1  0.31545380  0.28926596  0.32435466  1
  H  H16  1  0.39188001  0.14425937  0.37469278  1
  H  H17  1  0.98941738  0.10902773  0.00057383  1
  H  H18  1  0.17307702  0.21006544  0.83200279  1
  H  H19  1  0.10729740  0.35540432  0.89189568  1
  H  H20  1  0.81546811  0.21072426  0.17562640  1
  H  H21  1  0.89192502  0.35573036  0.12532817  1
  H  H22  1  0.50945177  0.89101498  0.50017284  1
  H  H23  1  0.67831121  0.78940979  0.68136961  1
  H  H24  1  0.61889313  0.64390974  0.61505902  1
  H  H25  1  0.33278354  0.78983097  0.32558255  1
  H  H26  1  0.38359317  0.64493468  0.40162715  1
  H  H27  1  0.00941241  0.60899119  0.99980876  1
  H  H28  1  0.17829303  0.71061396  0.81864854  1
  H  H29  1  0.11884169  0.85610696  0.88495549  1
  H  H30  1  0.83269106  0.71015767  0.17436520  1
  H  H31  1  0.88348567  0.85506045  0.09832817  1
  Zn  Zn32  1  0.49682445  0.99997796  0.99807649  1
  Zn  Zn33  1  0.99683360  0.50003337  0.50194158  1
  Sr  Sr34  1  0.00053064  0.00003989  0.49780035  1
  Sr  Sr35  1  0.50053006  0.49997336  0.00220604  1
  Br  Br36  1  0.49936501  0.22605123  0.99511392  1
  Br  Br37  1  0.22597274  0.98680458  0.20179751  1
  Br  Br38  1  0.70417091  0.01374307  0.27312500  1
  Br  Br39  1  0.99933182  0.27396064  0.50492297  1
  Br  Br40  1  0.29603016  0.01253408  0.72438463  1
  Br  Br41  1  0.77453202  0.98695879  0.79329583  1
  Br  Br42  1  0.50253678  0.77397538  0.00382357  1
  Br  Br43  1  0.72595862  0.51319166  0.29821344  1
  Br  Br44  1  0.20416414  0.48625893  0.22686737  1
  Br  Br45  1  0.00257283  0.72603448  0.49613171  1
  Br  Br46  1  0.27452799  0.51305951  0.70671114  1
  Br  Br47  1  0.79601954  0.48747073  0.77562151  1
