# generated using pymatgen
data_ZnGeH10C2(Br3N2)2
_symmetry_space_group_name_H-M   'P 1'
_cell_length_a   8.29650057
_cell_length_b   10.25925429
_cell_length_c   8.59440032
_cell_angle_alpha   89.99867976
_cell_angle_beta   89.99799754
_cell_angle_gamma   89.99810850
_symmetry_Int_Tables_number   1
_chemical_formula_structural   ZnGeH10C2(Br3N2)2
_chemical_formula_sum   'Zn2 Ge2 H20 C4 Br12 N8'
_cell_volume   731.52019491
_cell_formula_units_Z   2
loop_
 _symmetry_equiv_pos_site_id
 _symmetry_equiv_pos_as_xyz
  1  'x, y, z'
loop_
 _atom_site_type_symbol
 _atom_site_label
 _atom_site_symmetry_multiplicity
 _atom_site_fract_x
 _atom_site_fract_y
 _atom_site_fract_z
 _atom_site_occupancy
  C  C0  1  0.49537008  0.29470746  0.49180714  1
  C  C1  1  0.99541553  0.20528078  0.00819498  1
  C  C2  1  0.50272010  0.79015076  0.49653955  1
  C  C3  1  0.00275096  0.70983549  0.00347230  1
  N  N4  1  0.59352667  0.23729505  0.58937104  1
  N  N5  1  0.39784207  0.23694018  0.39369405  1
  N  N6  1  0.09361604  0.26271219  0.91067386  1
  N  N7  1  0.89788104  0.26302923  0.10632796  1
  N  N8  1  0.60540656  0.73238390  0.58918392  1
  N  N9  1  0.40409312  0.73333773  0.39845531  1
  N  N10  1  0.10547827  0.76762676  0.91076906  1
  N  N11  1  0.90416846  0.76664485  0.10152231  1
  H  H12  1  0.49499118  0.40067579  0.49198191  1
  H  H13  1  0.66467644  0.29316457  0.66018542  1
  H  H14  1  0.60531926  0.13880471  0.59964228  1
  H  H15  1  0.32434917  0.29324930  0.32524795  1
  H  H16  1  0.38414681  0.13835104  0.38695953  1
  H  H17  1  0.99500321  0.09931207  0.00794968  1
  H  H18  1  0.16477253  0.20685641  0.83985314  1
  H  H19  1  0.10546448  0.36120468  0.90049309  1
  H  H20  1  0.82436163  0.20671046  0.17473074  1
  H  H21  1  0.88421520  0.36161787  0.11311494  1
  H  H22  1  0.49913565  0.89606662  0.50097723  1
  H  H23  1  0.67616491  0.78812522  0.66044031  1
  H  H24  1  0.61920246  0.63388843  0.59642607  1
  H  H25  1  0.32723401  0.79035780  0.33446923  1
  H  H26  1  0.39316192  0.63500047  0.38561388  1
  H  H27  1  -0.00078201  0.60392563  0.99901125  1
  H  H28  1  0.17620483  0.71186976  0.83951212  1
  H  H29  1  0.11922324  0.86610422  0.90351584  1
  H  H30  1  0.82730833  0.70962346  0.16554323  1
  H  H31  1  0.89321188  0.86498483  0.11438471  1
  Zn  Zn32  1  0.48835838  0.99842651  0.09675727  1
  Zn  Zn33  1  0.98833682  0.50160983  0.40325995  1
  Ge  Ge34  1  0.00731493  0.00175134  0.52705720  1
  Ge  Ge35  1  0.50734140  0.49842014  0.97293276  1
  Br  Br36  1  0.50035338  0.20969643  0.97004174  1
  Br  Br37  1  0.22012618  0.98256450  0.21511511  1
  Br  Br38  1  0.70843620  0.01463269  0.28572195  1
  Br  Br39  1  0.00030620  0.29031311  0.53000637  1
  Br  Br40  1  0.25922326  0.01405482  0.69071704  1
  Br  Br41  1  0.81299935  0.98998248  0.75298506  1
  Br  Br42  1  0.51542856  0.78913584  0.96917926  1
  Br  Br43  1  0.72011303  0.51741624  0.28488471  1
  Br  Br44  1  0.20841815  0.48533021  0.21429234  1
  Br  Br45  1  0.01538051  0.71087596  0.53080691  1
  Br  Br46  1  0.31301601  0.51003517  0.74700125  1
  Br  Br47  1  0.75923298  0.48597999  0.80928181  1
