# generated using pymatgen
data_GaBiH10C2(Br3N2)2
_symmetry_space_group_name_H-M   'P 1'
_cell_length_a   8.21203598
_cell_length_b   11.34224450
_cell_length_c   8.19979428
_cell_angle_alpha   90.09769870
_cell_angle_beta   89.99995537
_cell_angle_gamma   89.99776168
_symmetry_Int_Tables_number   1
_chemical_formula_structural   GaBiH10C2(Br3N2)2
_chemical_formula_sum   'Ga2 Bi2 H20 C4 Br12 N8'
_cell_volume   763.75167104
_cell_formula_units_Z   2
loop_
 _symmetry_equiv_pos_site_id
 _symmetry_equiv_pos_as_xyz
  1  'x, y, z'
loop_
 _atom_site_type_symbol
 _atom_site_label
 _atom_site_symmetry_multiplicity
 _atom_site_fract_x
 _atom_site_fract_y
 _atom_site_fract_z
 _atom_site_occupancy
  C  C0  1  0.49382556  0.29037481  0.49626681  1
  C  C1  1  0.99387044  0.20961657  0.00374384  1
  C  C2  1  0.50601147  0.79035728  0.50393062  1
  C  C3  1  0.00595936  0.70964986  0.99605275  1
  N  N4  1  0.59631637  0.23817175  0.59510159  1
  N  N5  1  0.39545267  0.23757694  0.39371775  1
  N  N6  1  0.09639328  0.26181782  0.90494265  1
  N  N7  1  0.89548986  0.26241524  0.10628888  1
  N  N8  1  0.60528108  0.73759164  0.60535977  1
  N  N9  1  0.40275015  0.73811681  0.40566406  1
  N  N10  1  0.10523842  0.76242159  0.89464789  1
  N  N11  1  0.90267013  0.76188381  0.09430613  1
  H  H12  1  0.48972369  0.38641855  0.49990307  1
  H  H13  1  0.66778490  0.28874365  0.66926878  1
  H  H14  1  0.60919449  0.14888528  0.60254850  1
  H  H15  1  0.32054131  0.28822394  0.32312807  1
  H  H16  1  0.38917700  0.14835789  0.37914048  1
  H  H17  1  0.98975030  0.11357564  0.00007612  1
  H  H18  1  0.16786609  0.21124761  0.83077968  1
  H  H19  1  0.10929766  0.35110581  0.89753761  1
  H  H20  1  0.82055531  0.21176941  0.17685196  1
  H  H21  1  0.88922679  0.35163351  0.12088838  1
  H  H22  1  0.50992217  0.88640655  0.50080395  1
  H  H23  1  0.67977947  0.78829469  0.67653658  1
  H  H24  1  0.61349152  0.64828608  0.61758425  1
  H  H25  1  0.33189284  0.78861891  0.33103916  1
  H  H26  1  0.38835432  0.64890717  0.39934316  1
  H  H27  1  0.00988149  0.61360004  0.99917151  1
  H  H28  1  0.17975737  0.71172476  0.82347779  1
  H  H29  1  0.11343936  0.85172818  0.88243467  1
  H  H30  1  0.83180451  0.71137533  0.16890935  1
  H  H31  1  0.88825151  0.85109192  0.10062562  1
  Ga  Ga32  1  0.49943765  0.99996342  0.99776863  1
  Ga  Ga33  1  0.99944221  0.50005009  0.50224195  1
  Bi  Bi34  1  0.00087928  0.00002714  0.49769370  1
  Bi  Bi35  1  0.50087436  0.49998472  0.00230831  1
  Br  Br36  1  0.49810058  0.24980127  0.99573150  1
  Br  Br37  1  0.21302529  0.98668307  0.21750837  1
  Br  Br38  1  0.71917974  0.01416907  0.28574428  1
  Br  Br39  1  0.99805976  0.25020903  0.50430944  1
  Br  Br40  1  0.27986625  0.01393395  0.71059899  1
  Br  Br41  1  0.78835977  0.98519818  0.77854499  1
  Br  Br42  1  0.50170659  0.75020785  0.00457563  1
  Br  Br43  1  0.71300860  0.51332837  0.28250064  1
  Br  Br44  1  0.21916250  0.48584135  0.21424937  1
  Br  Br45  1  0.00175380  0.74980496  0.49539281  1
  Br  Br46  1  0.28835906  0.51480982  0.72145660  1
  Br  Br47  1  0.77985302  0.48606165  0.78940808  1
