# generated using pymatgen
data_TlGaH10C2(Br3N2)2
_symmetry_space_group_name_H-M   'P 1'
_cell_length_a   8.14888804
_cell_length_b   11.18550099
_cell_length_c   8.13528251
_cell_angle_alpha   89.71141020
_cell_angle_beta   89.99974499
_cell_angle_gamma   90.00324947
_symmetry_Int_Tables_number   1
_chemical_formula_structural   TlGaH10C2(Br3N2)2
_chemical_formula_sum   'Tl2 Ga2 H20 C4 Br12 N8'
_cell_volume   741.51667381
_cell_formula_units_Z   2
loop_
 _symmetry_equiv_pos_site_id
 _symmetry_equiv_pos_as_xyz
  1  'x, y, z'
loop_
 _atom_site_type_symbol
 _atom_site_label
 _atom_site_symmetry_multiplicity
 _atom_site_fract_x
 _atom_site_fract_y
 _atom_site_fract_z
 _atom_site_occupancy
  C  C0  1  0.49425372  0.29088070  0.49587027  1
  C  C1  1  0.99430546  0.20911445  0.00414037  1
  C  C2  1  0.50576479  0.79091264  0.50340863  1
  C  C3  1  0.00571574  0.70909039  0.99657662  1
  N  N4  1  0.59891585  0.23782770  0.59434424  1
  N  N5  1  0.39378726  0.23734558  0.39428514  1
  N  N6  1  0.09898396  0.26216941  0.90570446  1
  N  N7  1  0.89381887  0.26264749  0.10572802  1
  N  N8  1  0.60469412  0.73735079  0.60709368  1
  N  N9  1  0.40338397  0.73785518  0.40316004  1
  N  N10  1  0.10464852  0.76266360  0.89291277  1
  N  N11  1  0.90329666  0.76214060  0.09681112  1
  H  H12  1  0.49002219  0.38817276  0.49893484  1
  H  H13  1  0.67374763  0.28906230  0.66591606  1
  H  H14  1  0.60752765  0.14723052  0.60756010  1
  H  H15  1  0.31494683  0.28866467  0.32636581  1
  H  H16  1  0.39142145  0.14709727  0.37588454  1
  H  H17  1  0.99005172  0.11182246  0.00106293  1
  H  H18  1  0.17383043  0.21093784  0.83413518  1
  H  H19  1  0.10763039  0.35277037  0.89250719  1
  H  H20  1  0.81496102  0.21132435  0.17362080  1
  H  H21  1  0.89147242  0.35289090  0.12413520  1
  H  H22  1  0.50917162  0.88823390  0.49997300  1
  H  H23  1  0.67613241  0.78871878  0.68203679  1
  H  H24  1  0.61812550  0.64673023  0.61559729  1
  H  H25  1  0.33471313  0.78911750  0.32498097  1
  H  H26  1  0.38472591  0.64762994  0.40124243  1
  H  H27  1  0.00913416  0.61177146  0.00002155  1
  H  H28  1  0.17611437  0.71130519  0.81798173  1
  H  H29  1  0.11807296  0.85328632  0.88440870  1
  H  H30  1  0.83462446  0.71086897  0.17497324  1
  H  H31  1  0.88462521  0.85235933  0.09871096  1
  Ga  Ga32  1  0.49865239  0.99999107  0.99781537  1
  Ga  Ga33  1  0.99865684  0.50001964  0.50219581  1
  Tl  Tl34  1  1.00000756  0.00006070  0.49730923  1
  Tl  Tl35  1  0.50000777  0.49995291  0.00269897  1
  Br  Br36  1  0.49902571  0.22196615  0.99491993  1
  Br  Br37  1  0.24063474  0.98964888  0.18990374  1
  Br  Br38  1  0.69153438  0.01107459  0.25761784  1
  Br  Br39  1  0.99898320  0.27804493  0.50511353  1
  Br  Br40  1  0.30792444  0.00920863  0.73891437  1
  Br  Br41  1  0.75876902  0.99018853  0.80571600  1
  Br  Br42  1  0.50216977  0.77806627  0.00337522  1
  Br  Br43  1  0.74062360  0.51034451  0.31010492  1
  Br  Br44  1  0.19152323  0.48892118  0.24237459  1
  Br  Br45  1  0.00220500  0.72194266  0.49658269  1
  Br  Br46  1  0.25876707  0.50983204  0.69428882  1
  Br  Br47  1  0.80791425  0.49080672  0.76108904  1
