# generated using pymatgen
data_GaH10AuC2(Br3N2)2
_symmetry_space_group_name_H-M   'P 1'
_cell_length_a   8.20784587
_cell_length_b   11.19532576
_cell_length_c   7.84401917
_cell_angle_alpha   89.38680575
_cell_angle_beta   90.00387256
_cell_angle_gamma   90.00256680
_symmetry_Int_Tables_number   1
_chemical_formula_structural   GaH10AuC2(Br3N2)2
_chemical_formula_sum   'Ga2 H20 Au2 C4 Br12 N8'
_cell_volume   720.74178341
_cell_formula_units_Z   2
loop_
 _symmetry_equiv_pos_site_id
 _symmetry_equiv_pos_as_xyz
  1  'x, y, z'
loop_
 _atom_site_type_symbol
 _atom_site_label
 _atom_site_symmetry_multiplicity
 _atom_site_fract_x
 _atom_site_fract_y
 _atom_site_fract_z
 _atom_site_occupancy
  C  C0  1  0.49509076  0.29003707  0.49849211  1
  C  C1  1  0.99510259  0.20996685  0.00152263  1
  C  C2  1  0.50278296  0.79023310  0.50318333  1
  C  C3  1  0.00276050  0.70976859  0.99682063  1
  N  N4  1  0.60635733  0.23775190  0.59279763  1
  N  N5  1  0.38951900  0.23582554  0.40089670  1
  N  N6  1  0.10637778  0.26225018  0.90725644  1
  N  N7  1  0.88953841  0.26416485  0.09912226  1
  N  N8  1  0.60965604  0.73706486  0.60192698  1
  N  N9  1  0.39388860  0.73690186  0.40833733  1
  N  N10  1  0.10961031  0.76295319  0.89807208  1
  N  N11  1  0.89384318  0.76308352  0.09163773  1
  H  H12  1  0.48965567  0.38730275  0.50163200  1
  H  H13  1  0.68141395  0.28992367  0.66464629  1
  H  H14  1  0.62251647  0.14739160  0.59983796  1
  H  H15  1  0.30985771  0.28674378  0.33119688  1
  H  H16  1  0.38374589  0.14534456  0.38828751  1
  H  H17  1  0.98963819  0.11270035  0.99835361  1
  H  H18  1  0.18141389  0.21009207  0.83540088  1
  H  H19  1  0.12255741  0.35261649  0.90023678  1
  H  H20  1  0.80986316  0.21324241  0.16880301  1
  H  H21  1  0.88378841  0.35465083  0.11176228  1
  H  H22  1  0.50490140  0.88758360  0.49936439  1
  H  H23  1  0.68874236  0.78899270  0.66936834  1
  H  H24  1  0.61755430  0.64657439  0.61790216  1
  H  H25  1  0.31752667  0.78827513  0.33544975  1
  H  H26  1  0.38260358  0.64638962  0.39982507  1
  H  H27  1  0.00491811  0.61242045  0.00067767  1
  H  H28  1  0.18871314  0.71103589  0.83064612  1
  H  H29  1  0.11746348  0.85344147  0.88206128  1
  H  H30  1  0.81749852  0.71169839  0.16451034  1
  H  H31  1  0.88250855  0.85359353  0.10010581  1
  Ga  Ga32  1  0.48816864  0.01380315  0.01048694  1
  Ga  Ga33  1  0.98830111  0.48620160  0.48964526  1
  Au  Au34  1  0.00797991  0.98916769  0.49335883  1
  Au  Au35  1  0.50790127  0.51084138  0.00657631  1
  Br  Br36  1  0.49841963  0.22892412  0.99867165  1
  Br  Br37  1  0.19086992  0.98174910  0.24021317  1
  Br  Br38  1  0.69146830  0.01587648  0.25245914  1
  Br  Br39  1  0.99844411  0.27108101  0.50139955  1
  Br  Br40  1  0.30680927  0.01687127  0.74954448  1
  Br  Br41  1  0.81917298  0.98321264  0.73956354  1
  Br  Br42  1  0.50141827  0.79930492  0.00181977  1
  Br  Br43  1  0.69082273  0.51824212  0.25970084  1
  Br  Br44  1  0.19147632  0.48411348  0.24758192  1
  Br  Br45  1  0.00142142  0.70070620  0.49814140  1
  Br  Br46  1  0.31909993  0.51680120  0.76034104  1
  Br  Br47  1  0.80683721  0.48315141  0.75046692  1
