# generated using pymatgen
data_GaH10IrC2(Br3N2)2
_symmetry_space_group_name_H-M   'P 1'
_cell_length_a   8.06503850
_cell_length_b   10.84571807
_cell_length_c   8.05170540
_cell_angle_alpha   90.23665677
_cell_angle_beta   90.00015286
_cell_angle_gamma   89.99678443
_symmetry_Int_Tables_number   1
_chemical_formula_structural   GaH10IrC2(Br3N2)2
_chemical_formula_sum   'Ga2 H20 Ir2 C4 Br12 N8'
_cell_volume   704.28579191
_cell_formula_units_Z   2
loop_
 _symmetry_equiv_pos_site_id
 _symmetry_equiv_pos_as_xyz
  1  'x, y, z'
loop_
 _atom_site_type_symbol
 _atom_site_label
 _atom_site_symmetry_multiplicity
 _atom_site_fract_x
 _atom_site_fract_y
 _atom_site_fract_z
 _atom_site_occupancy
  C  C0  1  0.49456073  0.29176624  0.49652427  1
  C  C1  1  0.99460147  0.20822537  0.00349805  1
  C  C2  1  0.50559347  0.79177924  0.50412968  1
  C  C3  1  0.00552452  0.70823179  0.99585936  1
  N  N4  1  0.59800372  0.23728478  0.59769106  1
  N  N5  1  0.39465931  0.23651037  0.39212577  1
  N  N6  1  0.09808691  0.26270496  0.90235918  1
  N  N7  1  0.89470004  0.26347755  0.10788809  1
  N  N8  1  0.60700625  0.73657350  0.60652316  1
  N  N9  1  0.40011141  0.73726062  0.40454952  1
  N  N10  1  0.10695568  0.76344222  0.89348502  1
  N  N11  1  0.90002367  0.76273879  0.09541523  1
  H  H12  1  0.49105637  0.39204988  0.49969265  1
  H  H13  1  0.66804771  0.29022612  0.67602883  1
  H  H14  1  0.61644386  0.14425831  0.60090275  1
  H  H15  1  0.32150553  0.28942609  0.31713261  1
  H  H16  1  0.38122447  0.14313759  0.38308087  1
  H  H17  1  0.99107332  0.10794236  0.00029568  1
  H  H18  1  0.16812840  0.20976539  0.82401961  1
  H  H19  1  0.11655734  0.35574100  0.89917996  1
  H  H20  1  0.82152172  0.21056650  0.18285205  1
  H  H21  1  0.88128567  0.35685000  0.11694729  1
  H  H22  1  0.50964302  0.89203974  0.50133242  1
  H  H23  1  0.68592856  0.78946521  0.67604204  1
  H  H24  1  0.61044108  0.64351932  0.62463639  1
  H  H25  1  0.32516688  0.79017753  0.33148011  1
  H  H26  1  0.39085861  0.64391658  0.39111773  1
  H  H27  1  0.00958285  0.60796875  0.99864948  1
  H  H28  1  0.18590475  0.71055266  0.82397068  1
  H  H29  1  0.11039136  0.85650671  0.87537669  1
  H  H30  1  0.82507311  0.70981988  0.16846049  1
  H  H31  1  0.89075550  0.85608003  0.10884550  1
  Ga  Ga32  1  0.49767745  0.99988648  0.99776728  1
  Ga  Ga33  1  0.99770028  0.50014116  0.50225928  1
  Ir  Ir34  1  0.00034688  0.99997992  0.49826556  1
  Ir  Ir35  1  0.50034490  0.50002722  0.00173517  1
  Br  Br36  1  0.49858269  0.26678685  0.99719900  1
  Br  Br37  1  0.18889407  0.98991140  0.24686590  1
  Br  Br38  1  0.74978277  0.00861297  0.30881515  1
  Br  Br39  1  0.99853641  0.23321813  0.50284968  1
  Br  Br40  1  0.25155127  0.01071931  0.68670411  1
  Br  Br41  1  0.81147567  0.99057730  0.74925025  1
  Br  Br42  1  0.50149718  0.73330129  0.00453348  1
  Br  Br43  1  0.68889236  0.51008790  0.25313126  1
  Br  Br44  1  0.24977346  0.49140534  0.19117865  1
  Br  Br45  1  0.00153186  0.76670303  0.49542017  1
  Br  Br46  1  0.31147384  0.50942970  0.75074562  1
  Br  Br47  1  0.75154096  0.48926994  0.81329195  1
