# generated using pymatgen
data_HfGaH10C2(Br3N2)2
_symmetry_space_group_name_H-M   'P 1'
_cell_length_a   8.37581688
_cell_length_b   11.21238423
_cell_length_c   8.02776340
_cell_angle_alpha   93.82145654
_cell_angle_beta   87.15843149
_cell_angle_gamma   90.74931425
_symmetry_Int_Tables_number   1
_chemical_formula_structural   HfGaH10C2(Br3N2)2
_chemical_formula_sum   'Hf2 Ga2 H20 C4 Br12 N8'
_cell_volume   751.27304193
_cell_formula_units_Z   2
loop_
 _symmetry_equiv_pos_site_id
 _symmetry_equiv_pos_as_xyz
  1  'x, y, z'
loop_
 _atom_site_type_symbol
 _atom_site_label
 _atom_site_symmetry_multiplicity
 _atom_site_fract_x
 _atom_site_fract_y
 _atom_site_fract_z
 _atom_site_occupancy
  C  C0  1  0.49492813  0.31763339  0.50358684  1
  C  C1  1  0.97963769  0.28263149  0.97338677  1
  C  C2  1  0.53628234  0.72685210  0.56122668  1
  C  C3  1  0.00832319  0.71119179  0.98890727  1
  N  N4  1  0.58938356  0.26765121  0.60383956  1
  N  N5  1  0.39216095  0.26032608  0.40867410  1
  N  N6  1  0.11946764  0.25477195  0.90094747  1
  N  N7  1  0.90306230  0.21943529  0.08379258  1
  N  N8  1  0.59342703  0.78834845  0.68903959  1
  N  N9  1  0.40656461  0.75541383  0.48406997  1
  N  N10  1  0.10819097  0.76808418  0.88999941  1
  N  N11  1  0.89022601  0.75972284  0.08187135  1
  H  H12  1  0.50309178  0.41453109  0.49798128  1
  H  H13  1  0.65767706  0.32244950  0.67969175  1
  H  H14  1  0.59162805  0.17782208  0.61522005  1
  H  H15  1  0.32562388  0.30744128  0.33265750  1
  H  H16  1  0.37492447  0.16998778  0.40776198  1
  H  H17  1  0.95183288  0.14467575  0.12628573  1
  H  H18  1  0.18406761  0.18454996  0.93418254  1
  H  H19  1  0.17876302  0.31703967  0.83261141  1
  H  H20  1  0.79142116  0.24454851  0.12779856  1
  H  H21  1  0.92095515  0.36278222  0.93675916  1
  H  H22  1  0.35275421  0.83632145  0.50916522  1
  H  H23  1  0.68899427  0.74519436  0.73156644  1
  H  H24  1  0.59421617  0.64424962  0.50965310  1
  H  H25  1  0.38245090  0.70781028  0.37550777  1
  H  H26  1  0.46975165  0.54006997  0.29154934  1
  H  H27  1  0.02528764  0.61514213  0.99456911  1
  H  H28  1  0.19677742  0.71933646  0.82627297  1
  H  H29  1  0.09920097  0.85725889  0.87423637  1
  H  H30  1  0.82141657  0.70512043  0.15418815  1
  H  H31  1  0.87047295  0.84946543  0.09547536  1
  Ga  Ga32  1  0.51933701  0.93638211  0.86183853  1
  Ga  Ga33  1  0.02582506  0.51147496  0.52701299  1
  Hf  Hf34  1  0.98635958  0.00827557  0.47927268  1
  Hf  Hf35  1  0.49557023  0.50251309  0.06936257  1
  Br  Br36  1  0.50878243  0.26998856  0.01604353  1
  Br  Br37  1  0.15938221  0.00436783  0.19719557  1
  Br  Br38  1  0.71674021  0.00059827  0.33738346  1
  Br  Br39  1  0.98115879  0.23970274  0.49340175  1
  Br  Br40  1  0.26561872  0.02857903  0.63038931  1
  Br  Br41  1  0.86139221  0.01293455  0.78402200  1
  Br  Br42  1  0.47859278  0.73384192  0.08132298  1
  Br  Br43  1  0.76867124  0.49679079  0.23573043  1
  Br  Br44  1  0.19347278  0.47194644  0.19577793  1
  Br  Br45  1  0.99873123  0.77884458  0.47797104  1
  Br  Br46  1  0.30572156  0.51010309  0.78296362  1
  Br  Br47  1  0.73170108  0.51585996  0.80794100  1
