# generated using pymatgen
data_GaSbH10C2(Br3N2)2
_symmetry_space_group_name_H-M   'P 1'
_cell_length_a   8.17022319
_cell_length_b   11.24061385
_cell_length_c   8.15882897
_cell_angle_alpha   90.14014255
_cell_angle_beta   90.00010821
_cell_angle_gamma   89.99671271
_symmetry_Int_Tables_number   1
_chemical_formula_structural   GaSbH10C2(Br3N2)2
_chemical_formula_sum   'Ga2 Sb2 H20 C4 Br12 N8'
_cell_volume   749.29093521
_cell_formula_units_Z   2
loop_
 _symmetry_equiv_pos_site_id
 _symmetry_equiv_pos_as_xyz
  1  'x, y, z'
loop_
 _atom_site_type_symbol
 _atom_site_label
 _atom_site_symmetry_multiplicity
 _atom_site_fract_x
 _atom_site_fract_y
 _atom_site_fract_z
 _atom_site_occupancy
  C  C0  1  0.49390979  0.29057040  0.49632028  1
  C  C1  1  0.99395906  0.20942369  0.00369076  1
  C  C2  1  0.50610256  0.79055452  0.50383798  1
  C  C3  1  0.00604808  0.70945268  0.99614508  1
  N  N4  1  0.59678367  0.23789272  0.59563425  1
  N  N5  1  0.39506287  0.23738298  0.39323572  1
  N  N6  1  0.09686561  0.26209740  0.90441456  1
  N  N7  1  0.89510324  0.26260604  0.10677011  1
  N  N8  1  0.60582604  0.73738229  0.60567218  1
  N  N9  1  0.40222049  0.73787359  0.40517672  1
  N  N10  1  0.10578758  0.76263147  0.89433299  1
  N  N11  1  0.90214086  0.76212520  0.09478775  1
  H  H12  1  0.48983949  0.38740920  0.50000539  1
  H  H13  1  0.66795018  0.28907084  0.67073578  1
  H  H14  1  0.61098102  0.14787475  0.60237193  1
  H  H15  1  0.32046402  0.28863249  0.32188667  1
  H  H16  1  0.38730991  0.14726877  0.37933097  1
  H  H17  1  0.98987099  0.11258284  0.99997235  1
  H  H18  1  0.16804092  0.21091902  0.82931555  1
  H  H19  1  0.11108979  0.35211494  0.89771942  1
  H  H20  1  0.82048217  0.21136114  0.17809114  1
  H  H21  1  0.88736131  0.35272281  0.12069883  1
  H  H22  1  0.51016701  0.88739370  0.50061683  1
  H  H23  1  0.68121427  0.78866481  0.67652866  1
  H  H24  1  0.61325457  0.64728537  0.61934165  1
  H  H25  1  0.33056812  0.78899281  0.33085859  1
  H  H26  1  0.38841618  0.64782846  0.39749484  1
  H  H27  1  0.01012865  0.61261263  0.99935365  1
  H  H28  1  0.18119570  0.71135484  0.82348595  1
  H  H29  1  0.11320347  0.85272932  0.88067945  1
  H  H30  1  0.83047689  0.71100139  0.16908152  1
  H  H31  1  0.88830863  0.85217120  0.10247031  1
  Ga  Ga32  1  0.50001590  0.99994347  0.99875759  1
  Ga  Ga33  1  0.00002588  0.50006954  0.50124809  1
  Sb  Sb34  1  0.00096772  0.00002835  0.49796468  1
  Sb  Sb35  1  0.50096375  0.49998357  0.00203770  1
  Br  Br36  1  0.49811711  0.25234117  0.99598789  1
  Br  Br37  1  0.21192898  0.98763799  0.22222274  1
  Br  Br38  1  0.72313913  0.01279558  0.28589675  1
  Br  Br39  1  0.99807309  0.24767147  0.50405747  1
  Br  Br40  1  0.27497547  0.01292948  0.70895788  1
  Br  Br41  1  0.78911195  0.98661734  0.77435346  1
  Br  Br42  1  0.50171249  0.74772031  0.00416188  1
  Br  Br43  1  0.71191383  0.51237162  0.27778499  1
  Br  Br44  1  0.22311680  0.48721766  0.21410433  1
  Br  Br45  1  0.00175625  0.75229525  0.49580667  1
  Br  Br46  1  0.28911177  0.51339135  0.72564826  1
  Br  Br47  1  0.77495608  0.48706455  0.79105653  1
