# generated using pymatgen
data_InGaH10C2(Br3N2)2
_symmetry_space_group_name_H-M   'P 1'
_cell_length_a   8.13418750
_cell_length_b   11.07951960
_cell_length_c   8.12200311
_cell_angle_alpha   90.17910558
_cell_angle_beta   89.99975240
_cell_angle_gamma   89.99740568
_symmetry_Int_Tables_number   1
_chemical_formula_structural   InGaH10C2(Br3N2)2
_chemical_formula_sum   'In2 Ga2 H20 C4 Br12 N8'
_cell_volume   731.97481478
_cell_formula_units_Z   2
loop_
 _symmetry_equiv_pos_site_id
 _symmetry_equiv_pos_as_xyz
  1  'x, y, z'
loop_
 _atom_site_type_symbol
 _atom_site_label
 _atom_site_symmetry_multiplicity
 _atom_site_fract_x
 _atom_site_fract_y
 _atom_site_fract_z
 _atom_site_occupancy
  C  C0  1  0.49453810  0.29077495  0.49652317  1
  C  C1  1  0.99458489  0.20922200  0.00348472  1
  C  C2  1  0.50545892  0.79077545  0.50403065  1
  C  C3  1  0.00541473  0.70922803  0.99594928  1
  N  N4  1  0.59741756  0.23735793  0.59664386  1
  N  N5  1  0.39529561  0.23663682  0.39317090  1
  N  N6  1  0.09749188  0.26263398  0.90340172  1
  N  N7  1  0.89533482  0.26335833  0.10684006  1
  N  N8  1  0.60579330  0.73660802  0.60584911  1
  N  N9  1  0.40116512  0.73736078  0.40491991  1
  N  N10  1  0.10575581  0.76340460  0.89415399  1
  N  N11  1  0.90109417  0.76263938  0.09505041  1
  H  H12  1  0.49090536  0.38905279  0.49969898  1
  H  H13  1  0.66815054  0.28929663  0.67285772  1
  H  H14  1  0.61250264  0.14602657  0.60259927  1
  H  H15  1  0.32148047  0.28851931  0.32021507  1
  H  H16  1  0.38571602  0.14514820  0.38113520  1
  H  H17  1  0.99092797  0.11093969  0.00027752  1
  H  H18  1  0.16822836  0.21069377  0.82718287  1
  H  H19  1  0.11260344  0.35396302  0.89748271  1
  H  H20  1  0.82149725  0.21147771  0.17976697  1
  H  H21  1  0.88577031  0.35484499  0.11889770  1
  H  H22  1  0.50930663  0.88902300  0.50135380  1
  H  H23  1  0.68245191  0.78847613  0.67632376  1
  H  H24  1  0.61201517  0.64522443  0.62040159  1
  H  H25  1  0.32814409  0.78928448  0.33135027  1
  H  H26  1  0.38900617  0.64592891  0.39518342  1
  H  H27  1  0.00927337  0.61098598  0.99861771  1
  H  H28  1  0.18243623  0.71154288  0.82368580  1
  H  H29  1  0.11196857  0.85479115  0.87961439  1
  H  H30  1  0.82806726  0.71070910  0.16860054  1
  H  H31  1  0.88891269  0.85407096  0.10478958  1
  Ga  Ga32  1  0.49816875  0.99994910  0.99707853  1
  Ga  Ga33  1  0.99818236  0.50006741  0.50294684  1
  In  In34  1  0.00061238  0.00001762  0.49777117  1
  In  In35  1  0.50061290  0.49999341  0.00223531  1
  Br  Br36  1  0.49852311  0.25927293  0.99702026  1
  Br  Br37  1  0.20840589  0.98795107  0.22815732  1
  Br  Br38  1  0.73097825  0.01115281  0.28974296  1
  Br  Br39  1  0.99848285  0.24073490  0.50302260  1
  Br  Br40  1  0.27008872  0.01271101  0.70602255  1
  Br  Br41  1  0.79249607  0.98806239  0.76768540  1
  Br  Br42  1  0.50139022  0.74074823  0.00412953  1
  Br  Br43  1  0.70839416  0.51205628  0.27184813  1
  Br  Br44  1  0.23096979  0.48886429  0.21025207  1
  Br  Br45  1  0.00143367  0.75926264  0.49583878  1
  Br  Br46  1  0.29249264  0.51193923  0.73232127  1
  Br  Br47  1  0.77007824  0.48727968  0.79397936  1
