# generated using pymatgen
data_CuPH12C2(I3N)2
_symmetry_space_group_name_H-M   'P 1'
_cell_length_a   8.15577520
_cell_length_b   11.46778707
_cell_length_c   8.53908556
_cell_angle_alpha   89.44011979
_cell_angle_beta   89.98361078
_cell_angle_gamma   89.99904509
_symmetry_Int_Tables_number   1
_chemical_formula_structural   CuPH12C2(I3N)2
_chemical_formula_sum   'Cu2 P2 H24 C4 I12 N4'
_cell_volume   798.61135274
_cell_formula_units_Z   2
loop_
 _symmetry_equiv_pos_site_id
 _symmetry_equiv_pos_as_xyz
  1  'x, y, z'
loop_
 _atom_site_type_symbol
 _atom_site_label
 _atom_site_symmetry_multiplicity
 _atom_site_fract_x
 _atom_site_fract_y
 _atom_site_fract_z
 _atom_site_occupancy
  C  C0  1  0.48554371  0.25007524  0.43423883  1
  C  C1  1  0.98553108  0.24993660  0.06544659  1
  C  C2  1  0.50567046  0.75536470  0.56632636  1
  C  C3  1  0.00568706  0.74467835  0.93389116  1
  N  N4  1  0.53458074  0.24878549  0.60165629  1
  N  N5  1  0.03456534  0.25130968  0.89801044  1
  N  N6  1  0.45309678  0.75393982  0.39999624  1
  N  N7  1  0.95320213  0.74595618  0.10027318  1
  H  H8  1  0.59623422  0.25327826  0.36194390  1
  H  H9  1  0.41619574  0.17033969  0.40937258  1
  H  H10  1  0.40920201  0.32686861  0.41121913  1
  H  H11  1  0.60902441  0.17785437  0.62906206  1
  H  H12  1  0.60009214  0.32367195  0.63210095  1
  H  H13  1  0.43485866  0.24323157  0.67655246  1
  H  H14  1  0.09622289  0.24669093  0.13767710  1
  H  H15  1  0.90917434  0.17313760  0.08844670  1
  H  H16  1  0.91619922  0.32966481  0.09043258  1
  H  H17  1  0.10010471  0.17644074  0.86746565  1
  H  H18  1  0.10898496  0.32226791  0.87061285  1
  H  H19  1  0.93484366  0.25689046  0.82317322  1
  H  H20  1  0.39595848  0.75688176  0.63995118  1
  H  H21  1  0.57809916  0.67687062  0.59123831  1
  H  H22  1  0.57942977  0.83363431  0.58645371  1
  H  H23  1  0.38230865  0.82656983  0.36892995  1
  H  H24  1  0.38386558  0.68021266  0.37461161  1
  H  H25  1  0.55237164  0.75223094  0.32460218  1
  H  H26  1  0.89593320  0.74323090  0.86037693  1
  H  H27  1  0.07810445  0.82319088  0.90903055  1
  H  H28  1  0.07943899  0.66642519  0.91355203  1
  H  H29  1  0.88403976  0.81968625  0.12587417  1
  H  H30  1  0.88237500  0.67332242  0.13128995  1
  H  H31  1  0.05252561  0.74753151  0.17556448  1
  P  P32  1  0.52492350  0.98417471  0.00117498  1
  P  P33  1  0.02483817  0.51583603  0.49896285  1
  Cu  Cu34  1  0.14542818  0.07261085  0.46720379  1
  Cu  Cu35  1  0.64544931  0.42736659  0.03306421  1
  I  I36  1  0.46061974  0.25289468  0.01490945  1
  I  I37  1  0.21156082  0.97780887  0.21098774  1
  I  I38  1  0.70866542  0.99007198  0.25167592  1
  I  I39  1  0.96057981  0.24710538  0.48488916  1
  I  I40  1  0.26141661  0.00982003  0.73031456  1
  I  I41  1  0.76217840  0.01008372  0.79760483  1
  I  I42  1  0.50861924  0.75852692  0.98345835  1
  I  I43  1  0.71157999  0.52211361  0.28931332  1
  I  I44  1  0.20864335  0.50992852  0.24832425  1
  I  I45  1  0.00845541  0.74146455  0.51687226  1
  I  I46  1  0.26218151  0.48992536  0.70235114  1
  I  I47  1  0.76141970  0.49017627  0.76981649  1
