# generated using pymatgen
data_GaAgH10C2(Br3N2)2
_symmetry_space_group_name_H-M   'P 1'
_cell_length_a   8.54356155
_cell_length_b   10.21269720
_cell_length_c   8.42422698
_cell_angle_alpha   89.52117288
_cell_angle_beta   89.98221623
_cell_angle_gamma   90.00495224
_symmetry_Int_Tables_number   1
_chemical_formula_structural   GaAgH10C2(Br3N2)2
_chemical_formula_sum   'Ga2 Ag2 H20 C4 Br12 N8'
_cell_volume   735.01174586
_cell_formula_units_Z   2
loop_
 _symmetry_equiv_pos_site_id
 _symmetry_equiv_pos_as_xyz
  1  'x, y, z'
loop_
 _atom_site_type_symbol
 _atom_site_label
 _atom_site_symmetry_multiplicity
 _atom_site_fract_x
 _atom_site_fract_y
 _atom_site_fract_z
 _atom_site_occupancy
  C  C0  1  0.49623861  0.26770383  0.51298272  1
  C  C1  1  -0.00374184  0.23230920  0.98706344  1
  C  C2  1  0.51349198  0.80140726  0.48108072  1
  C  C3  1  0.01349063  0.69863247  0.01898729  1
  N  N4  1  0.61383930  0.21730872  0.59291640  1
  N  N5  1  0.43242729  0.21564088  0.38674240  1
  N  N6  1  0.11389088  0.28264935  0.90704024  1
  N  N7  1  0.93245357  0.28442730  0.11331167  1
  N  N8  1  0.58087193  0.75426705  0.60926665  1
  N  N9  1  0.39796134  0.74497698  0.40508236  1
  N  N10  1  0.08089551  0.74575713  0.89075574  1
  N  N11  1  0.89788611  0.75502556  0.09496072  1
  H  H12  1  0.44570067  0.35900882  0.55697993  1
  H  H13  1  0.65075359  0.26136829  0.69428866  1
  H  H14  1  0.66956887  0.13335099  0.56003470  1
  H  H15  1  0.35236398  0.27085492  0.32442762  1
  H  H16  1  0.48153574  0.13663999  0.33237238  1
  H  H17  1  0.94569350  0.14099182  0.94313408  1
  H  H18  1  0.15083538  0.23852118  0.80570504  1
  H  H19  1  0.16963829  0.36662117  0.93985570  1
  H  H20  1  0.85235101  0.22925719  0.17567168  1
  H  H21  1  0.98161066  0.36342439  0.16762159  1
  H  H22  1  0.56002591  0.89252099  0.43091527  1
  H  H23  1  0.66340681  0.80971860  0.66699352  1
  H  H24  1  0.53699370  0.67231885  0.66497006  1
  H  H25  1  0.35579980  0.78677853  0.30349931  1
  H  H26  1  0.35105576  0.65722153  0.44015625  1
  H  H27  1  0.06006948  0.60756506  0.06918915  1
  H  H28  1  0.16348036  0.69032525  0.83304966  1
  H  H29  1  0.03699500  0.82766437  0.83502579  1
  H  H30  1  0.85568193  0.71322781  0.19655916  1
  H  H31  1  0.85092506  0.84273327  0.05984890  1
  Ga  Ga32  1  0.37965399  1.00154084  0.96738409  1
  Ga  Ga33  1  0.87961554  0.49845989  0.53264188  1
  Ag  Ag34  1  0.94308110  0.97919432  0.50474952  1
  Ag  Ag35  1  0.44346303  0.52050970  0.99491494  1
  Br  Br36  1  0.51870302  0.20100199  0.98888487  1
  Br  Br37  1  0.19285587  0.99641372  0.17719400  1
  Br  Br38  1  0.75508257  0.02722539  0.27307483  1
  Br  Br39  1  0.01862627  0.29901411  0.51110278  1
  Br  Br40  1  0.27460527  0.00537255  0.70486640  1
  Br  Br41  1  0.81751260  0.97404526  0.78499670  1
  Br  Br42  1  0.51623695  0.80096179  0.00936589  1
  Br  Br43  1  0.69284788  0.50363696  0.32294439  1
  Br  Br44  1  0.25525702  0.47282344  0.22670904  1
  Br  Br45  1  0.01632171  0.69900727  0.49060596  1
  Br  Br46  1  0.31740659  0.52597725  0.71492005  1
  Br  Br47  1  0.77455911  0.49465976  0.79526063  1
