# generated using pymatgen
data_GaH10RhC2(Br3N2)2
_symmetry_space_group_name_H-M   'P 1'
_cell_length_a   8.01149839
_cell_length_b   10.68866667
_cell_length_c   7.99855062
_cell_angle_alpha   90.24063613
_cell_angle_beta   90.00005902
_cell_angle_gamma   89.99769095
_symmetry_Int_Tables_number   1
_chemical_formula_structural   GaH10RhC2(Br3N2)2
_chemical_formula_sum   'Ga2 H20 Rh2 C4 Br12 N8'
_cell_volume   684.92773132
_cell_formula_units_Z   2
loop_
 _symmetry_equiv_pos_site_id
 _symmetry_equiv_pos_as_xyz
  1  'x, y, z'
loop_
 _atom_site_type_symbol
 _atom_site_label
 _atom_site_symmetry_multiplicity
 _atom_site_fract_x
 _atom_site_fract_y
 _atom_site_fract_z
 _atom_site_occupancy
  C  C0  1  0.49511015  0.29226263  0.49654632  1
  C  C1  1  0.99515424  0.20773054  0.00346610  1
  C  C2  1  0.50517460  0.79228816  0.50411790  1
  C  C3  1  0.00513364  0.70771705  0.99585437  1
  N  N4  1  0.59865614  0.23687869  0.59865110  1
  N  N5  1  0.39485113  0.23595820  0.39163431  1
  N  N6  1  0.09874404  0.26311161  0.90138443  1
  N  N7  1  0.89490445  0.26403196  0.10837116  1
  N  N8  1  0.60732161  0.73594085  0.60664339  1
  N  N9  1  0.39900335  0.73697920  0.40419572  1
  N  N10  1  0.10727775  0.76406415  0.89336067  1
  N  N11  1  0.89891062  0.76302609  0.09579606  1
  H  H12  1  0.49184754  0.39396861  0.49927963  1
  H  H13  1  0.66927232  0.29068582  0.67735602  1
  H  H14  1  0.61659185  0.14248619  0.60227519  1
  H  H15  1  0.32135464  0.28950307  0.31597214  1
  H  H16  1  0.38161655  0.14117614  0.38294702  1
  H  H17  1  0.99186932  0.10602659  0.00069472  1
  H  H18  1  0.16934828  0.20930250  0.82267593  1
  H  H19  1  0.11669629  0.35750506  0.89780090  1
  H  H20  1  0.82138355  0.21049549  0.18400997  1
  H  H21  1  0.88168212  0.35881581  0.11708862  1
  H  H22  1  0.50928261  0.89396593  0.50163585  1
  H  H23  1  0.68669378  0.78943529  0.67681976  1
  H  H24  1  0.61061132  0.64145247  0.62420979  1
  H  H25  1  0.32353968  0.79078319  0.33081732  1
  H  H26  1  0.38962244  0.64230625  0.39082797  1
  H  H27  1  0.00924507  0.60604259  0.99833025  1
  H  H28  1  0.18665906  0.71059003  0.82319699  1
  H  H29  1  0.11055978  0.85855603  0.87580667  1
  H  H30  1  0.82346139  0.70921443  0.16913541  1
  H  H31  1  0.88953075  0.85770788  0.10915080  1
  Ga  Ga32  1  0.49654245  0.99995855  0.99786581  1
  Ga  Ga33  1  0.99657423  0.50006024  0.50216695  1
  Rh  Rh34  1  0.00040292  0.99998600  0.49808463  1
  Rh  Rh35  1  0.50039653  0.50002176  0.00191975  1
  Br  Br36  1  0.49907417  0.26067267  0.99771847  1
  Br  Br37  1  0.19367999  0.98837543  0.24443114  1
  Br  Br38  1  0.74777091  0.00930922  0.30422451  1
  Br  Br39  1  0.99903173  0.23933433  0.50232770  1
  Br  Br40  1  0.25376001  0.01177837  0.69129567  1
  Br  Br41  1  0.80703840  0.99035345  0.75093824  1
  Br  Br42  1  0.50118960  0.73938029  0.00401128  1
  Br  Br43  1  0.69367566  0.51162237  0.25556418  1
  Br  Br44  1  0.24776321  0.49071587  0.19578274  1
  Br  Br45  1  0.00123640  0.76062551  0.49595670  1
  Br  Br46  1  0.30702740  0.50965501  0.74906267  1
  Br  Br47  1  0.75374568  0.48820541  0.80870183  1
