# generated using pymatgen
data_ZrGaH10C2(Br3N2)2
_symmetry_space_group_name_H-M   'P 1'
_cell_length_a   8.39586912
_cell_length_b   11.23800223
_cell_length_c   8.01182670
_cell_angle_alpha   93.83041429
_cell_angle_beta   87.00377564
_cell_angle_gamma   91.03144837
_symmetry_Int_Tables_number   1
_chemical_formula_structural   ZrGaH10C2(Br3N2)2
_chemical_formula_sum   'Zr2 Ga2 H20 C4 Br12 N8'
_cell_volume   753.13865934
_cell_formula_units_Z   2
loop_
 _symmetry_equiv_pos_site_id
 _symmetry_equiv_pos_as_xyz
  1  'x, y, z'
loop_
 _atom_site_type_symbol
 _atom_site_label
 _atom_site_symmetry_multiplicity
 _atom_site_fract_x
 _atom_site_fract_y
 _atom_site_fract_z
 _atom_site_occupancy
  C  C0  1  0.49137220  0.31531649  0.49983377  1
  C  C1  1  0.98244756  0.28442986  0.97642841  1
  C  C2  1  0.53660256  0.72643432  0.56219732  1
  C  C3  1  0.01130273  0.71270770  0.98770192  1
  N  N4  1  0.58694281  0.26672889  0.59965276  1
  N  N5  1  0.38823354  0.25690452  0.40671155  1
  N  N6  1  0.12103829  0.25349977  0.90459355  1
  N  N7  1  0.90034380  0.22189904  0.08420018  1
  N  N8  1  0.59675946  0.78918350  0.68718490  1
  N  N9  1  0.40360305  0.75275292  0.48987387  1
  N  N10  1  0.11199286  0.76740072  0.88659038  1
  N  N11  1  0.89003677  0.76213347  0.07401235  1
  H  H12  1  0.49896164  0.41195425  0.49304946  1
  H  H13  1  0.65614156  0.32184526  0.67397737  1
  H  H14  1  0.58891650  0.17724536  0.61233983  1
  H  H15  1  0.32049745  0.30313774  0.33125553  1
  H  H16  1  0.37190398  0.16665879  0.40647128  1
  H  H17  1  0.94321170  0.14495353  0.12486416  1
  H  H18  1  0.17979904  0.18002077  0.93467148  1
  H  H19  1  0.18414473  0.31449409  0.83713174  1
  H  H20  1  0.78954943  0.24940576  0.12669258  1
  H  H21  1  0.92945188  0.36691689  0.94175439  1
  H  H22  1  0.34974293  0.83322599  0.51552454  1
  H  H23  1  0.69522921  0.74827577  0.72581924  1
  H  H24  1  0.59455356  0.64460214  0.50920397  1
  H  H25  1  0.37718076  0.70440890  0.38249827  1
  H  H26  1  0.47095995  0.54765390  0.29301468  1
  H  H27  1  0.03051260  0.61802442  0.00160089  1
  H  H28  1  0.20284813  0.71833032  0.82832866  1
  H  H29  1  0.10143169  0.85506882  0.86338625  1
  H  H30  1  0.81976478  0.70977118  0.14835153  1
  H  H31  1  0.86739124  0.85108133  0.07786951  1
  Ga  Ga32  1  0.52239867  0.93597023  0.86137308  1
  Ga  Ga33  1  0.02844664  0.51383875  0.54399510  1
  Zr  Zr34  1  0.98543615  0.00809748  0.47917499  1
  Zr  Zr35  1  0.49730538  0.50299184  0.07020346  1
  Br  Br36  1  0.50886377  0.26830716  0.01343908  1
  Br  Br37  1  0.16121409  0.00763510  0.19548511  1
  Br  Br38  1  0.71305514  0.00121245  0.33794418  1
  Br  Br39  1  0.98004120  0.24099035  0.49907575  1
  Br  Br40  1  0.26696907  0.02638926  0.63446494  1
  Br  Br41  1  0.86293771  0.00927241  0.79055050  1
  Br  Br42  1  0.47812301  0.73724248  0.08247622  1
  Br  Br43  1  0.76797764  0.49772802  0.24093409  1
  Br  Br44  1  0.19582938  0.47162286  0.20412784  1
  Br  Br45  1  0.99745228  0.77659131  0.47211939  1
  Br  Br46  1  0.30596092  0.50946663  0.78224125  1
  Br  Br47  1  0.73513987  0.51624023  0.80571347  1
