# generated using pymatgen
data_YGaH10C2(Br3N2)2
_symmetry_space_group_name_H-M   'P 1'
_cell_length_a   8.19019222
_cell_length_b   11.38159417
_cell_length_c   8.17860192
_cell_angle_alpha   90.14014389
_cell_angle_beta   90.00096327
_cell_angle_gamma   89.99547884
_symmetry_Int_Tables_number   1
_chemical_formula_structural   YGaH10C2(Br3N2)2
_chemical_formula_sum   'Y2 Ga2 H20 C4 Br12 N8'
_cell_volume   762.38608382
_cell_formula_units_Z   2
loop_
 _symmetry_equiv_pos_site_id
 _symmetry_equiv_pos_as_xyz
  1  'x, y, z'
loop_
 _atom_site_type_symbol
 _atom_site_label
 _atom_site_symmetry_multiplicity
 _atom_site_fract_x
 _atom_site_fract_y
 _atom_site_fract_z
 _atom_site_occupancy
  C  C0  1  0.49347728  0.29079468  0.49640099  1
  C  C1  1  0.99353228  0.20919612  0.00360984  1
  C  C2  1  0.50632585  0.79077199  0.50403606  1
  C  C3  1  0.00626914  0.70923738  0.99594033  1
  N  N4  1  0.59581063  0.23853164  0.59575775  1
  N  N5  1  0.39511978  0.23800931  0.39331909  1
  N  N6  1  0.09589564  0.26145575  0.90429641  1
  N  N7  1  0.89515997  0.26198114  0.10668390  1
  N  N8  1  0.60613997  0.73808763  0.60539611  1
  N  N9  1  0.40246145  0.73843537  0.40598842  1
  N  N10  1  0.10609661  0.76192700  0.89461266  1
  N  N11  1  0.90237636  0.76156962  0.09397179  1
  H  H12  1  0.48949927  0.38642973  0.50003237  1
  H  H13  1  0.66698377  0.28850818  0.67120517  1
  H  H14  1  0.60986454  0.14959455  0.60075305  1
  H  H15  1  0.32074517  0.28807275  0.32136866  1
  H  H16  1  0.38751660  0.14891779  0.38112185  1
  H  H17  1  0.98953993  0.11355802  0.99994770  1
  H  H18  1  0.16708350  0.21147659  0.82885912  1
  H  H19  1  0.10997501  0.35038713  0.89934682  1
  H  H20  1  0.82075996  0.21191728  0.17860281  1
  H  H21  1  0.88756240  0.35106935  0.11890437  1
  H  H22  1  0.51027741  0.88641631  0.50068875  1
  H  H23  1  0.68212061  0.78824752  0.67591734  1
  H  H24  1  0.61199160  0.64909130  0.61892371  1
  H  H25  1  0.33026830  0.78828441  0.33171625  1
  H  H26  1  0.39040507  0.64939584  0.39856525  1
  H  H27  1  0.01023148  0.61359301  0.99927263  1
  H  H28  1  0.18209943  0.71177105  0.82410180  1
  H  H29  1  0.11193999  0.85092423  0.88110304  1
  H  H30  1  0.83016699  0.71171506  0.16820756  1
  H  H31  1  0.89028884  0.85060855  0.10139398  1
  Ga  Ga32  1  0.49930853  0.99993727  0.99775303  1
  Ga  Ga33  1  0.99931035  0.50008167  0.50226893  1
  Y  Y34  1  0.00095095  0.00004410  0.49813438  1
  Y  Y35  1  0.50094516  0.49996990  0.00187108  1
  Br  Br36  1  0.49770144  0.25863629  0.99477751  1
  Br  Br37  1  0.19963894  0.98630601  0.21871028  1
  Br  Br38  1  0.72051558  0.01635466  0.29992505  1
  Br  Br39  1  0.99766127  0.24137665  0.50527213  1
  Br  Br40  1  0.27943339  0.01465566  0.69780248  1
  Br  Br41  1  0.80206983  0.98265758  0.77806714  1
  Br  Br42  1  0.50141838  0.74136298  0.00578982  1
  Br  Br43  1  0.69961558  0.51369903  0.28130565  1
  Br  Br44  1  0.22050245  0.48366491  0.20006493  1
  Br  Br45  1  0.00146751  0.75865159  0.49417550  1
  Br  Br46  1  0.30207274  0.51735505  0.72193052  1
  Br  Br47  1  0.77942241  0.48533331  0.80221074  1
