# generated using pymatgen
data_GaAsH10C2(Br3N2)2
_symmetry_space_group_name_H-M   'P 1'
_cell_length_a   8.05895457
_cell_length_b   11.01261049
_cell_length_c   8.04571469
_cell_angle_alpha   90.31818349
_cell_angle_beta   90.00037961
_cell_angle_gamma   89.99242883
_symmetry_Int_Tables_number   1
_chemical_formula_structural   GaAsH10C2(Br3N2)2
_chemical_formula_sum   'Ga2 As2 H20 C4 Br12 N8'
_cell_volume   714.04718854
_cell_formula_units_Z   2
loop_
 _symmetry_equiv_pos_site_id
 _symmetry_equiv_pos_as_xyz
  1  'x, y, z'
loop_
 _atom_site_type_symbol
 _atom_site_label
 _atom_site_symmetry_multiplicity
 _atom_site_fract_x
 _atom_site_fract_y
 _atom_site_fract_z
 _atom_site_occupancy
  C  C0  1  0.49464493  0.29119808  0.49668609  1
  C  C1  1  0.99472020  0.20880113  0.00328730  1
  C  C2  1  0.50558895  0.79120944  0.50364348  1
  C  C3  1  0.00553422  0.70879139  0.99633467  1
  N  N4  1  0.59822945  0.23719705  0.59743149  1
  N  N5  1  0.39460122  0.23672167  0.39216806  1
  N  N6  1  0.09829542  0.26278918  0.90262405  1
  N  N7  1  0.89462982  0.26328120  0.10784960  1
  N  N8  1  0.60663865  0.73660680  0.60631739  1
  N  N9  1  0.40009598  0.73736486  0.40402868  1
  N  N10  1  0.10659397  0.76340571  0.89368316  1
  N  N11  1  0.90002070  0.76263411  0.09593238  1
  H  H12  1  0.49094121  0.39004164  0.50030391  1
  H  H13  1  0.66938402  0.28923300  0.67491869  1
  H  H14  1  0.61430002  0.14540100  0.60230448  1
  H  H15  1  0.32035813  0.28893108  0.31847052  1
  H  H16  1  0.38474599  0.14471605  0.38010184  1
  H  H17  1  0.99097118  0.10995446  0.99965224  1
  H  H18  1  0.16945803  0.21075699  0.82512427  1
  H  H19  1  0.11439739  0.35458081  0.89778881  1
  H  H20  1  0.82037397  0.21106995  0.18150693  1
  H  H21  1  0.88479718  0.35528412  0.11994258  1
  H  H22  1  0.51017522  0.89001526  0.50070878  1
  H  H23  1  0.68454933  0.78869477  0.67706379  1
  H  H24  1  0.61177380  0.64477922  0.62166477  1
  H  H25  1  0.32627726  0.78943636  0.32989560  1
  H  H26  1  0.38802835  0.64540309  0.39375839  1
  H  H27  1  0.01014667  0.60999230  0.99924556  1
  H  H28  1  0.18452063  0.71132101  0.82294783  1
  H  H29  1  0.11171067  0.85522800  0.87836255  1
  H  H30  1  0.82618956  0.71055874  0.17005174  1
  H  H31  1  0.88791950  0.85460300  0.10622330  1
  Ga  Ga32  1  0.50519838  0.99944024  0.00200829  1
  Ga  Ga33  1  0.00524631  0.50057471  0.49796972  1
  As  As34  1  0.00348222  0.00029847  0.49851810  1
  As  As35  1  0.50349622  0.49971298  0.00147958  1
  Br  Br36  1  0.49791549  0.25923138  0.99709315  1
  Br  Br37  1  0.20667973  0.98828814  0.23311083  1
  Br  Br38  1  0.73166467  0.01094696  0.28681423  1
  Br  Br39  1  0.99789996  0.24077723  0.50296420  1
  Br  Br40  1  0.26256975  0.01175885  0.70284613  1
  Br  Br41  1  0.79129256  0.98908715  0.76392714  1
  Br  Br42  1  0.50089665  0.74154121  0.00349931  1
  Br  Br43  1  0.70665060  0.51172167  0.26689719  1
  Br  Br44  1  0.23163452  0.48907583  0.21321309  1
  Br  Br45  1  0.00096904  0.75846916  0.49647529  1
  Br  Br46  1  0.29126911  0.51091382  0.73607853  1
  Br  Br47  1  0.76254254  0.48822370  0.79718703  1
