# generated using pymatgen
data_GeH10PbC2(Br3N2)2
_symmetry_space_group_name_H-M   'P 1'
_cell_length_a   8.16585539
_cell_length_b   11.31138473
_cell_length_c   8.15480902
_cell_angle_alpha   89.83994040
_cell_angle_beta   90.00012379
_cell_angle_gamma   89.99981922
_symmetry_Int_Tables_number   1
_chemical_formula_structural   GeH10PbC2(Br3N2)2
_chemical_formula_sum   'Ge2 H20 Pb2 C4 Br12 N8'
_cell_volume   753.23338208
_cell_formula_units_Z   2
loop_
 _symmetry_equiv_pos_site_id
 _symmetry_equiv_pos_as_xyz
  1  'x, y, z'
loop_
 _atom_site_type_symbol
 _atom_site_label
 _atom_site_symmetry_multiplicity
 _atom_site_fract_x
 _atom_site_fract_y
 _atom_site_fract_z
 _atom_site_occupancy
  C  C0  1  0.49394369  0.29030466  0.49614592  1
  C  C1  1  0.99398919  0.20968309  0.00386360  1
  C  C2  1  0.50586921  0.79028900  0.50370146  1
  C  C3  1  0.00582447  0.70972182  0.99628023  1
  N  N4  1  0.59771593  0.23791732  0.59499842  1
  N  N5  1  0.39452803  0.23734988  0.39387228  1
  N  N6  1  0.09778357  0.26208194  0.90504530  1
  N  N7  1  0.89455795  0.26264569  0.10614219  1
  N  N8  1  0.60513241  0.73734800  0.60641542  1
  N  N9  1  0.40286387  0.73793691  0.40438252  1
  N  N10  1  0.10508669  0.76266330  0.89359093  1
  N  N11  1  0.90278896  0.76205684  0.09558724  1
  H  H12  1  0.48959001  0.38655471  0.49946443  1
  H  H13  1  0.67124322  0.28866936  0.66762713  1
  H  H14  1  0.60827925  0.14834493  0.60575751  1
  H  H15  1  0.31716457  0.28811487  0.32478292  1
  H  H16  1  0.39082957  0.14801487  0.37701359  1
  H  H17  1  0.98961370  0.11344127  0.00052643  1
  H  H18  1  0.17131896  0.21132635  0.83242048  1
  H  H19  1  0.10837224  0.35164983  0.89431541  1
  H  H20  1  0.81717951  0.21187427  0.17520276  1
  H  H21  1  0.89087551  0.35197057  0.12301079  1
  H  H22  1  0.50955191  0.88659074  0.50035115  1
  H  H23  1  0.67786815  0.78818429  0.67990616  1
  H  H24  1  0.61618360  0.64770979  0.61657411  1
  H  H25  1  0.33332470  0.78861974  0.32747165  1
  H  H26  1  0.38576093  0.64860939  0.40080726  1
  H  H27  1  0.00951768  0.61341456  0.99963416  1
  H  H28  1  0.17784903  0.71183927  0.82010616  1
  H  H29  1  0.11613215  0.85230938  0.88343476  1
  H  H30  1  0.83324725  0.71136958  0.17248314  1
  H  H31  1  0.88566459  0.85138595  0.09915759  1
  Ge  Ge32  1  0.49712963  0.99993412  0.99862452  1
  Ge  Ge33  1  0.99714378  0.50007577  0.50138076  1
  Pb  Pb34  1  0.99966118  0.00006572  0.49836512  1
  Pb  Pb35  1  0.49966921  0.49994526  0.00163880  1
  Br  Br36  1  0.49851550  0.24056255  0.99554883  1
  Br  Br37  1  0.22699990  0.98633395  0.20520562  1
  Br  Br38  1  0.70848857  0.01399920  0.27291781  1
  Br  Br39  1  0.99847752  0.25945025  0.50449070  1
  Br  Br40  1  0.29114328  0.01334573  0.72387137  1
  Br  Br41  1  0.77590186  0.98631750  0.78775245  1
  Br  Br42  1  0.50236366  0.75955167  0.00397210  1
  Br  Br43  1  0.72698179  0.51367258  0.29479892  1
  Br  Br44  1  0.20847084  0.48600203  0.22708740  1
  Br  Br45  1  0.00240804  0.74046110  0.49598687  1
  Br  Br46  1  0.27588912  0.51369253  0.71225107  1
  Br  Br47  1  0.79112497  0.48666086  0.77613932  1
