# generated using pymatgen
data_GeH10PtC2(Br3N2)2
_symmetry_space_group_name_H-M   'P 1'
_cell_length_a   7.93059085
_cell_length_b   10.39550839
_cell_length_c   8.63330043
_cell_angle_alpha   89.90383693
_cell_angle_beta   91.00362719
_cell_angle_gamma   90.66365170
_symmetry_Int_Tables_number   1
_chemical_formula_structural   GeH10PtC2(Br3N2)2
_chemical_formula_sum   'Ge2 H20 Pt2 C4 Br12 N8'
_cell_volume   711.59337150
_cell_formula_units_Z   2
loop_
 _symmetry_equiv_pos_site_id
 _symmetry_equiv_pos_as_xyz
  1  'x, y, z'
loop_
 _atom_site_type_symbol
 _atom_site_label
 _atom_site_symmetry_multiplicity
 _atom_site_fract_x
 _atom_site_fract_y
 _atom_site_fract_z
 _atom_site_occupancy
  C  C0  1  0.48722282  0.29236988  0.49667289  1
  C  C1  1  0.98935268  0.20864613  0.02091334  1
  C  C2  1  0.51638945  0.79263226  0.51248497  1
  C  C3  1  0.00630638  0.70906815  0.99319187  1
  N  N4  1  0.57976323  0.23959876  0.60591711  1
  N  N5  1  0.40651306  0.23131187  0.38481432  1
  N  N6  1  0.07107218  0.26016485  0.90539961  1
  N  N7  1  0.89802870  0.27048255  0.12096987  1
  N  N8  1  0.60297874  0.73325816  0.62087731  1
  N  N9  1  0.43088625  0.73800919  0.39864659  1
  N  N10  1  0.08511551  0.77417610  0.88541386  1
  N  N11  1  0.92225032  0.75812178  0.10759504  1
  H  H12  1  0.47555884  0.39662571  0.49970145  1
  H  H13  1  0.64008507  0.29819019  0.68544801  1
  H  H14  1  0.60665252  0.14395405  0.60995106  1
  H  H15  1  0.34419431  0.28331203  0.30160892  1
  H  H16  1  0.40792802  0.13389610  0.36982421  1
  H  H17  1  0.99935208  0.10510968  0.03743259  1
  H  H18  1  0.13780278  0.20277682  0.83319545  1
  H  H19  1  0.07150992  0.35619394  0.88048120  1
  H  H20  1  0.83431059  0.21698859  0.20146851  1
  H  H21  1  0.86902730  0.36546498  0.11100057  1
  H  H22  1  0.51419252  0.89723381  0.51811720  1
  H  H23  1  0.67100202  0.78752551  0.69932817  1
  H  H24  1  0.61703486  0.63576216  0.62650416  1
  H  H25  1  0.36759263  0.79526860  0.32065984  1
  H  H26  1  0.43441294  0.64186851  0.37646402  1
  H  H27  1  0.01269904  0.60468881  0.98625795  1
  H  H28  1  0.14164285  0.72391999  0.79893573  1
  H  H29  1  0.07413530  0.87112598  0.87212093  1
  H  H30  1  0.85992164  0.69806199  0.18205975  1
  H  H31  1  0.90702828  0.85458768  0.12405133  1
  Ge  Ge32  1  0.45129744  0.97365582  0.93657308  1
  Ge  Ge33  1  0.05699950  0.49989543  0.43720121  1
  Pt  Pt34  1  0.00493945  0.01757599  0.48968185  1
  Pt  Pt35  1  0.49849276  0.48315203  0.99056937  1
  Br  Br36  1  0.49326746  0.24561912  0.00205695  1
  Br  Br37  1  0.26641975  0.97733587  0.18697611  1
  Br  Br38  1  0.75757209  0.01360616  0.31303914  1
  Br  Br39  1  0.98148821  0.25383810  0.52092378  1
  Br  Br40  1  0.25104279  0.02587143  0.67252966  1
  Br  Br41  1  0.75753467  0.98819646  0.82507643  1
  Br  Br42  1  0.51686967  0.72139927  0.01171205  1
  Br  Br43  1  0.74575524  0.51815808  0.33711092  1
  Br  Br44  1  0.25925061  0.48495246  0.17296371  1
  Br  Br45  1  0.00798800  0.78133062  0.49793015  1
  Br  Br46  1  0.22468279  0.51553787  0.69842617  1
  Br  Br47  1  0.74445608  0.47954345  0.81982634  1
