# generated using pymatgen
data_BaGeH10C2(Br3N2)2
_symmetry_space_group_name_H-M   'P 1'
_cell_length_a   8.25782677
_cell_length_b   11.66016376
_cell_length_c   8.32872689
_cell_angle_alpha   89.94734929
_cell_angle_beta   90.01054885
_cell_angle_gamma   89.99445053
_symmetry_Int_Tables_number   1
_chemical_formula_structural   BaGeH10C2(Br3N2)2
_chemical_formula_sum   'Ba2 Ge2 H20 C4 Br12 N8'
_cell_volume   801.95287117
_cell_formula_units_Z   2
loop_
 _symmetry_equiv_pos_site_id
 _symmetry_equiv_pos_as_xyz
  1  'x, y, z'
loop_
 _atom_site_type_symbol
 _atom_site_label
 _atom_site_symmetry_multiplicity
 _atom_site_fract_x
 _atom_site_fract_y
 _atom_site_fract_z
 _atom_site_occupancy
  C  C0  1  0.49434259  0.29778954  0.50712139  1
  C  C1  1  0.99354228  0.20207930  0.99431537  1
  C  C2  1  0.50322297  0.79838562  0.48775675  1
  C  C3  1  0.00269244  0.70120798  0.01084823  1
  N  N4  1  0.61167356  0.24950459  0.58888348  1
  N  N5  1  0.41577998  0.24945473  0.38788117  1
  N  N6  1  0.11151452  0.25018058  0.91331522  1
  N  N7  1  0.91595670  0.24997873  0.11451027  1
  N  N8  1  0.57871058  0.75020125  0.60852313  1
  N  N9  1  0.38653566  0.75037872  0.40394769  1
  N  N10  1  0.07834761  0.74952447  0.89032275  1
  N  N11  1  0.88580127  0.74909289  0.09448275  1
  H  H12  1  0.45734251  0.38413923  0.54258858  1
  H  H13  1  0.67097974  0.29517025  0.67529329  1
  H  H14  1  0.65127128  0.16853361  0.56499152  1
  H  H15  1  0.32597737  0.29492261  0.33198022  1
  H  H16  1  0.44936930  0.17191581  0.34131425  1
  H  H17  1  0.95513904  0.11634338  0.95738374  1
  H  H18  1  0.17016538  0.20487652  0.82610769  1
  H  H19  1  0.15299711  0.33030863  0.93949342  1
  H  H20  1  0.82545358  0.20477012  0.16968260  1
  H  H21  1  0.95053959  0.32697774  0.16211926  1
  H  H22  1  0.54164444  0.88439462  0.45187338  1
  H  H23  1  0.66198330  0.79693540  0.67193170  1
  H  H24  1  0.54787806  0.67053212  0.64921928  1
  H  H25  1  0.33859779  0.79353273  0.30838281  1
  H  H26  1  0.33727817  0.67304215  0.43445722  1
  H  H27  1  0.04108840  0.61516935  0.04665020  1
  H  H28  1  0.16168178  0.70283889  0.82689360  1
  H  H29  1  0.04755042  0.82922524  0.84968882  1
  H  H30  1  0.83799309  0.70595232  0.19011030  1
  H  H31  1  0.83662447  0.82649262  0.06412695  1
  Ge  Ge32  1  0.49211643  0.00234259  0.98058482  1
  Ge  Ge33  1  0.99239188  0.49867020  0.51871146  1
  Ba  Ba34  1  0.01501184  0.99927069  0.47772315  1
  Ba  Ba35  1  0.51502484  0.50198953  0.02125562  1
  Br  Br36  1  0.50935865  0.23725717  0.98379746  1
  Br  Br37  1  0.22001225  0.99054497  0.16175905  1
  Br  Br38  1  0.68992529  0.02884898  0.27851643  1
  Br  Br39  1  0.00981341  0.26386451  0.51784769  1
  Br  Br40  1  0.32024854  0.01525715  0.70657870  1
  Br  Br41  1  0.79296664  0.97050533  0.79233257  1
  Br  Br42  1  0.48960743  0.76723360  0.00287377  1
  Br  Br43  1  0.72038872  0.50946761  0.33705403  1
  Br  Br44  1  0.19067871  0.47112333  0.22112890  1
  Br  Br45  1  0.98996980  0.73390954  0.49540128  1
  Br  Br46  1  0.29320844  0.53018696  0.70630372  1
  Br  Br47  1  0.81962149  0.48573911  0.79203906  1
