# generated using pymatgen
data_SnGeH10C2(Br3N2)2
_symmetry_space_group_name_H-M   'P 1'
_cell_length_a   8.13513848
_cell_length_b   11.22130081
_cell_length_c   8.12475914
_cell_angle_alpha   89.82712971
_cell_angle_beta   90.00055815
_cell_angle_gamma   89.99942192
_symmetry_Int_Tables_number   1
_chemical_formula_structural   SnGeH10C2(Br3N2)2
_chemical_formula_sum   'Sn2 Ge2 H20 C4 Br12 N8'
_cell_volume   741.68017875
_cell_formula_units_Z   2
loop_
 _symmetry_equiv_pos_site_id
 _symmetry_equiv_pos_as_xyz
  1  'x, y, z'
loop_
 _atom_site_type_symbol
 _atom_site_label
 _atom_site_symmetry_multiplicity
 _atom_site_fract_x
 _atom_site_fract_y
 _atom_site_fract_z
 _atom_site_occupancy
  C  C0  1  0.49411461  0.29045781  0.49620057  1
  C  C1  1  0.99416298  0.20953955  0.00380679  1
  C  C2  1  0.50561773  0.79045326  0.50357518  1
  C  C3  1  0.00556984  0.70955179  0.99641242  1
  N  N4  1  0.59811514  0.23766078  0.59563870  1
  N  N5  1  0.39442056  0.23703565  0.39367702  1
  N  N6  1  0.09817903  0.26233537  0.90440817  1
  N  N7  1  0.89445435  0.26295877  0.10633725  1
  N  N8  1  0.60541058  0.73701067  0.60647516  1
  N  N9  1  0.40228859  0.73765018  0.40393267  1
  N  N10  1  0.10537321  0.76300231  0.89352396  1
  N  N11  1  0.90222324  0.76234115  0.09603005  1
  H  H12  1  0.48995492  0.38754232  0.49930512  1
  H  H13  1  0.67121077  0.28893105  0.66909417  1
  H  H14  1  0.60981678  0.14736536  0.60566330  1
  H  H15  1  0.31758289  0.28825260  0.32349010  1
  H  H16  1  0.38934564  0.14686230  0.37802014  1
  H  H17  1  0.98997894  0.11245315  0.00068232  1
  H  H18  1  0.17128470  0.21106516  0.83094981  1
  H  H19  1  0.10990889  0.35263140  0.89440766  1
  H  H20  1  0.81760187  0.21174047  0.17649583  1
  H  H21  1  0.88939376  0.35312715  0.12200672  1
  H  H22  1  0.50918400  0.88754992  0.50044360  1
  H  H23  1  0.67907437  0.78827588  0.67947573  1
  H  H24  1  0.61550137  0.64664294  0.61779795  1
  H  H25  1  0.33174813  0.78888408  0.32756365  1
  H  H26  1  0.38622670  0.64750908  0.39878152  1
  H  H27  1  0.00915391  0.61245641  0.99954035  1
  H  H28  1  0.17905121  0.71174633  0.82053962  1
  H  H29  1  0.11544673  0.85337010  0.88221324  1
  H  H30  1  0.83167350  0.71110151  0.17239397  1
  H  H31  1  0.88613237  0.85248714  0.10118663  1
  Ge  Ge32  1  0.49518526  0.99935073  0.00192756  1
  Ge  Ge33  1  0.99523718  0.50064810  0.49803918  1
  Sn  Sn34  1  0.99893336  0.00055756  0.50138142  1
  Sn  Sn35  1  0.49897717  0.49944444  0.99860252  1
  Br  Br36  1  0.49817624  0.24419721  0.99621861  1
  Br  Br37  1  0.23034438  0.98697066  0.20865609  1
  Br  Br38  1  0.71350275  0.01230238  0.27037278  1
  Br  Br39  1  0.99813749  0.25582642  0.50382908  1
  Br  Br40  1  0.28427404  0.01308048  0.72356045  1
  Br  Br41  1  0.77749743  0.98766283  0.77911966  1
  Br  Br42  1  0.50252477  0.75697509  0.00311545  1
  Br  Br43  1  0.73032086  0.51303490  0.29133633  1
  Br  Br44  1  0.21345013  0.48770165  0.22967036  1
  Br  Br45  1  0.00256397  0.74304960  0.49684487  1
  Br  Br46  1  0.27747299  0.51234563  0.72087568  1
  Br  Br47  1  0.78422001  0.48692364  0.77648537  1
