# generated using pymatgen
data_CdGeH10C2(Br3N2)2
_symmetry_space_group_name_H-M   'P 1'
_cell_length_a   8.03187622
_cell_length_b   10.92808535
_cell_length_c   8.02189169
_cell_angle_alpha   89.91778635
_cell_angle_beta   90.00013703
_cell_angle_gamma   89.99958914
_symmetry_Int_Tables_number   1
_chemical_formula_structural   CdGeH10C2(Br3N2)2
_chemical_formula_sum   'Cd2 Ge2 H20 C4 Br12 N8'
_cell_volume   704.10500531
_cell_formula_units_Z   2
loop_
 _symmetry_equiv_pos_site_id
 _symmetry_equiv_pos_as_xyz
  1  'x, y, z'
loop_
 _atom_site_type_symbol
 _atom_site_label
 _atom_site_symmetry_multiplicity
 _atom_site_fract_x
 _atom_site_fract_y
 _atom_site_fract_z
 _atom_site_occupancy
  C  C0  1  0.49441754  0.29100336  0.49624976  1
  C  C1  1  0.99446393  0.20899109  0.00376409  1
  C  C2  1  0.50572572  0.79101085  0.50371507  1
  C  C3  1  0.00566947  0.70899551  0.99626871  1
  N  N4  1  0.59954605  0.23692161  0.59680697  1
  N  N5  1  0.39348246  0.23601817  0.39268881  1
  N  N6  1  0.09962232  0.26307413  0.90323788  1
  N  N7  1  0.89352309  0.26397456  0.10732064  1
  N  N8  1  0.60646054  0.73603948  0.60772796  1
  N  N9  1  0.40110802  0.73690751  0.40289325  1
  N  N10  1  0.10641275  0.76397548  0.89227458  1
  N  N11  1  0.90102412  0.76308843  0.09707210  1
  H  H12  1  0.49017778  0.39051598  0.49922555  1
  H  H13  1  0.67209200  0.28975041  0.67257516  1
  H  H14  1  0.61341233  0.14429795  0.60498730  1
  H  H15  1  0.31707364  0.28877832  0.32034960  1
  H  H16  1  0.38573304  0.14333171  0.37931559  1
  H  H17  1  0.99020437  0.10947939  0.00076157  1
  H  H18  1  0.17217111  0.21024601  0.82747139  1
  H  H19  1  0.11351468  0.35569636  0.89509038  1
  H  H20  1  0.81709288  0.21121338  0.17963594  1
  H  H21  1  0.88578509  0.35665983  0.12071074  1
  H  H22  1  0.50969541  0.89053049  0.50057028  1
  H  H23  1  0.68242772  0.78878251  0.68034328  1
  H  H24  1  0.61420793  0.64334373  0.62133387  1
  H  H25  1  0.32846571  0.78976988  0.32705161  1
  H  H26  1  0.38688965  0.64429794  0.39529420  1
  H  H27  1  0.00965275  0.60947581  0.99941217  1
  H  H28  1  0.18240411  0.71124130  0.81967331  1
  H  H29  1  0.11415273  0.85667283  0.87867765  1
  H  H30  1  0.82837669  0.71021826  0.17289839  1
  H  H31  1  0.88678262  0.85569774  0.10466713  1
  Ge  Ge32  1  0.49554437  0.99996615  0.99794151  1
  Ge  Ge33  1  0.99557826  0.50004906  0.50208246  1
  Cd  Cd34  1  0.99744949  0.00000781  0.49887022  1
  Cd  Cd35  1  0.49747227  0.50000528  0.00115372  1
  Br  Br36  1  0.49940983  0.25149824  0.99663331  1
  Br  Br37  1  0.22162319  0.98603406  0.21440546  1
  Br  Br38  1  0.71822695  0.01251696  0.27754029  1
  Br  Br39  1  0.99937274  0.24851178  0.50341019  1
  Br  Br40  1  0.28393130  0.01410124  0.71894851  1
  Br  Br41  1  0.78041214  0.98723397  0.78009811  1
  Br  Br42  1  0.50252448  0.74848896  0.00394903  1
  Br  Br43  1  0.72160383  0.51396337  0.28559030  1
  Br  Br44  1  0.21821566  0.48749322  0.22245837  1
  Br  Br45  1  0.00257662  0.75152238  0.49600259  1
  Br  Br46  1  0.28039505  0.51277693  0.71990090  1
  Br  Br47  1  0.78391493  0.48589355  0.78105487  1
