# generated using pymatgen
data_CaH12PbC2(I3N)2
_symmetry_space_group_name_H-M   'P 1'
_cell_length_a   8.58372700
_cell_length_b   12.44637461
_cell_length_c   8.45507161
_cell_angle_alpha   89.80216760
_cell_angle_beta   90.00865939
_cell_angle_gamma   89.99970017
_symmetry_Int_Tables_number   1
_chemical_formula_structural   CaH12PbC2(I3N)2
_chemical_formula_sum   'Ca2 H24 Pb2 C4 I12 N4'
_cell_volume   903.30301838
_cell_formula_units_Z   2
loop_
 _symmetry_equiv_pos_site_id
 _symmetry_equiv_pos_as_xyz
  1  'x, y, z'
loop_
 _atom_site_type_symbol
 _atom_site_label
 _atom_site_symmetry_multiplicity
 _atom_site_fract_x
 _atom_site_fract_y
 _atom_site_fract_z
 _atom_site_occupancy
  C  C0  1  0.39544394  0.25015991  0.41516702  1
  C  C1  1  0.89678784  0.25009470  0.08613147  1
  C  C2  1  0.60455329  0.74984329  0.58484871  1
  C  C3  1  0.10322014  0.74990526  0.91388344  1
  N  N4  1  0.53392964  0.24998328  0.52024578  1
  N  N5  1  0.03454337  0.25009595  0.98012009  1
  N  N6  1  0.46606648  0.75001947  0.47977156  1
  N  N7  1  0.96546611  0.74990082  0.01989657  1
  H  H8  1  0.43512938  0.25020604  0.29206346  1
  H  H9  1  0.32672753  0.17789145  0.43889910  1
  H  H10  1  0.32680168  0.32239534  0.43873855  1
  H  H11  1  0.60178595  0.18230786  0.49788690  1
  H  H12  1  0.60207199  0.31767518  0.49780250  1
  H  H13  1  0.50395871  0.24975222  0.63994397  1
  H  H14  1  0.93738796  0.25010462  0.20894879  1
  H  H15  1  0.82785457  0.17789743  0.06319633  1
  H  H16  1  0.82804747  0.32242384  0.06283571  1
  H  H17  1  0.10269303  0.18234883  0.00219616  1
  H  H18  1  0.10264895  0.31771777  0.00196787  1
  H  H19  1  0.00379869  0.25029805  0.86060813  1
  H  H20  1  0.56486897  0.74979826  0.70795279  1
  H  H21  1  0.67319435  0.67760684  0.56127773  1
  H  H22  1  0.67327052  0.82211067  0.56111572  1
  H  H23  1  0.39821077  0.81769550  0.50213147  1
  H  H24  1  0.39792444  0.68232787  0.50221536  1
  H  H25  1  0.49603642  0.75025135  0.36007339  1
  H  H26  1  0.06261888  0.74989770  0.79106637  1
  H  H27  1  0.17215419  0.82210173  0.93682201  1
  H  H28  1  0.17196043  0.67757538  0.93717477  1
  H  H29  1  0.89731391  0.81764707  0.99782327  1
  H  H30  1  0.89736243  0.68227841  0.99804815  1
  H  H31  1  0.99621213  0.74969831  0.13940822  1
  Ca  Ca32  1  0.50000035  0.00001201  0.00000777  1
  Ca  Ca33  1  0.99998499  0.50000139  0.49998744  1
  Pb  Pb34  1  0.00000158  0.00000170  0.50001444  1
  Pb  Pb35  1  0.49999614  0.50001541  0.99998450  1
  I  I36  1  0.46976851  0.24662070  0.93735135  1
  I  I37  1  0.18001012  0.01539790  0.16875790  1
  I  I38  1  0.67116832  0.01672619  0.32309580  1
  I  I39  1  0.96920891  0.25339077  0.56323035  1
  I  I40  1  0.32884619  0.98328294  0.67691571  1
  I  I41  1  0.81999472  0.98459879  0.83126310  1
  I  I42  1  0.53023580  0.75340024  0.06266320  1
  I  I43  1  0.67997542  0.48439495  0.33119137  1
  I  I44  1  0.17127147  0.48351928  0.17693484  1
  I  I45  1  0.03078899  0.74661305  0.43678611  1
  I  I46  1  0.32000028  0.51560717  0.66879062  1
  I  I47  1  0.82872778  0.51648542  0.82306074  1
