# generated using pymatgen
data_SrGeH10C2(Br3N2)2
_symmetry_space_group_name_H-M   'P 1'
_cell_length_a   8.18119375
_cell_length_b   11.36440232
_cell_length_c   8.17060244
_cell_angle_alpha   89.89004983
_cell_angle_beta   89.99983966
_cell_angle_gamma   89.99930715
_symmetry_Int_Tables_number   1
_chemical_formula_structural   SrGeH10C2(Br3N2)2
_chemical_formula_sum   'Sr2 Ge2 H20 C4 Br12 N8'
_cell_volume   759.65527450
_cell_formula_units_Z   2
loop_
 _symmetry_equiv_pos_site_id
 _symmetry_equiv_pos_as_xyz
  1  'x, y, z'
loop_
 _atom_site_type_symbol
 _atom_site_label
 _atom_site_symmetry_multiplicity
 _atom_site_fract_x
 _atom_site_fract_y
 _atom_site_fract_z
 _atom_site_occupancy
  C  C0  1  0.49368529  0.29033675  0.49617323  1
  C  C1  1  0.99372574  0.20965996  0.00384094  1
  C  C2  1  0.50601046  0.79033611  0.50377744  1
  C  C3  1  0.00596278  0.70966692  0.99620644  1
  N  N4  1  0.59715545  0.23807336  0.59485964  1
  N  N5  1  0.39464275  0.23757153  0.39383237  1
  N  N6  1  0.09722757  0.26192332  0.90517994  1
  N  N7  1  0.89467973  0.26241942  0.10617141  1
  N  N8  1  0.60517654  0.73755842  0.60625797  1
  N  N9  1  0.40300258  0.73806445  0.40489302  1
  N  N10  1  0.10513236  0.76245503  0.89374814  1
  N  N11  1  0.90292245  0.76193319  0.09508044  1
  H  H12  1  0.48928833  0.38615789  0.49976876  1
  H  H13  1  0.67106410  0.28832228  0.66726732  1
  H  H14  1  0.60658083  0.14888715  0.60571873  1
  H  H15  1  0.31695306  0.28785948  0.32512717  1
  H  H16  1  0.39238498  0.14872028  0.37619432  1
  H  H17  1  0.98931750  0.11383822  0.00021672  1
  H  H18  1  0.17114546  0.21167468  0.83277965  1
  H  H19  1  0.10667847  0.35111109  0.89435506  1
  H  H20  1  0.81696660  0.21213310  0.17485486  1
  H  H21  1  0.89242954  0.35127127  0.12383035  1
  H  H22  1  0.50983122  0.88617961  0.50030109  1
  H  H23  1  0.67769556  0.78797553  0.67998179  1
  H  H24  1  0.61664558  0.64835736  0.61513373  1
  H  H25  1  0.33382555  0.78820750  0.32753797  1
  H  H26  1  0.38535941  0.64922360  0.40276814  1
  H  H27  1  0.00979536  0.61382536  0.99968183  1
  H  H28  1  0.17767644  0.71204457  0.82003280  1
  H  H29  1  0.11659317  0.85165669  0.88488094  1
  H  H30  1  0.83374384  0.71178137  0.17241653  1
  H  H31  1  0.88526102  0.85076905  0.09719814  1
  Ge  Ge32  1  0.49884800  0.99999474  0.99785156  1
  Ge  Ge33  1  0.99884844  0.50001593  0.50216283  1
  Sr  Sr34  1  0.00075857  0.00003063  0.49735626  1
  Sr  Sr35  1  0.50075572  0.49998113  0.00265040  1
  Br  Br36  1  0.49835650  0.24048973  0.99482329  1
  Br  Br37  1  0.22245614  0.98580584  0.20225653  1
  Br  Br38  1  0.70439200  0.01572957  0.27707827  1
  Br  Br39  1  0.99831848  0.25952160  0.50521257  1
  Br  Br40  1  0.29496439  0.01370110  0.72036744  1
  Br  Br41  1  0.77887178  0.98479667  0.79267997  1
  Br  Br42  1  0.50209936  0.75953485  0.00479426  1
  Br  Br43  1  0.72244033  0.51420107  0.29775510  1
  Br  Br44  1  0.20438227  0.48427166  0.22291797  1
  Br  Br45  1  0.00214706  0.74047625  0.49516511  1
  Br  Br46  1  0.27886553  0.51521299  0.70732830  1
  Br  Br47  1  0.79495505  0.48630467  0.77963803  1
