# generated using pymatgen
data_TlAsH10C2(Br3N2)2
_symmetry_space_group_name_H-M   'P 1'
_cell_length_a   8.20636678
_cell_length_b   11.37496095
_cell_length_c   8.19544351
_cell_angle_alpha   89.76495009
_cell_angle_beta   89.99975829
_cell_angle_gamma   90.00138771
_symmetry_Int_Tables_number   1
_chemical_formula_structural   TlAsH10C2(Br3N2)2
_chemical_formula_sum   'Tl2 As2 H20 C4 Br12 N8'
_cell_volume   765.01446047
_cell_formula_units_Z   2
loop_
 _symmetry_equiv_pos_site_id
 _symmetry_equiv_pos_as_xyz
  1  'x, y, z'
loop_
 _atom_site_type_symbol
 _atom_site_label
 _atom_site_symmetry_multiplicity
 _atom_site_fract_x
 _atom_site_fract_y
 _atom_site_fract_z
 _atom_site_occupancy
  C  C0  1  0.49412982  0.29023479  0.49600429  1
  C  C1  1  0.99417345  0.20976376  0.00400636  1
  C  C2  1  0.50587121  0.79029642  0.50322113  1
  C  C3  1  0.00582298  0.70970771  0.99677795  1
  N  N4  1  0.59801693  0.23787703  0.59362152  1
  N  N5  1  0.39448126  0.23733382  0.39521345  1
  N  N6  1  0.09808172  0.26212545  0.90640983  1
  N  N7  1  0.89452234  0.26265883  0.10479456  1
  N  N8  1  0.60358815  0.73745880  0.60648635  1
  N  N9  1  0.40414866  0.73785630  0.40393482  1
  N  N10  1  0.10354585  0.76254577  0.89351557  1
  N  N11  1  0.90407569  0.76214416  0.09603849  1
  H  H12  1  0.48990704  0.38597930  0.49906897  1
  H  H13  1  0.67250527  0.28781902  0.66495722  1
  H  H14  1  0.60711970  0.14872614  0.60511858  1
  H  H15  1  0.31621094  0.28729252  0.32730630  1
  H  H16  1  0.39206946  0.14845961  0.37811812  1
  H  H17  1  0.98993713  0.11401957  0.00092195  1
  H  H18  1  0.17257326  0.21218541  0.83507899  1
  H  H19  1  0.10720599  0.35127647  0.89493592  1
  H  H20  1  0.81623467  0.21269814  0.17268474  1
  H  H21  1  0.89212246  0.35153230  0.12190614  1
  H  H22  1  0.50979638  0.88604467  0.49935026  1
  H  H23  1  0.67515150  0.78751590  0.68073358  1
  H  H24  1  0.61491891  0.64825149  0.61571604  1
  H  H25  1  0.33596515  0.78771803  0.32586655  1
  H  H26  1  0.38650983  0.64904553  0.40210562  1
  H  H27  1  0.00977034  0.61396010  0.00066340  1
  H  H28  1  0.17512667  0.71250211  0.81929045  1
  H  H29  1  0.11485519  0.85176048  0.88427850  1
  H  H30  1  0.83588464  0.71227159  0.17410553  1
  H  H31  1  0.88640920  0.85094705  0.09785234  1
  As  As32  1  0.49882370  0.99999031  0.99775088  1
  As  As33  1  0.99882464  0.50001797  0.50225838  1
  Tl  Tl34  1  0.99999335  0.00005942  0.49726055  1
  Tl  Tl35  1  0.49999464  0.49994946  0.00274473  1
  Br  Br36  1  0.49846546  0.23051441  0.99466274  1
  Br  Br37  1  0.23887044  0.98938481  0.19422723  1
  Br  Br38  1  0.69663631  0.01195433  0.26005271  1
  Br  Br39  1  0.99842523  0.26949404  0.50536948  1
  Br  Br40  1  0.30316426  0.00942174  0.73674836  1
  Br  Br41  1  0.76171875  0.98932822  0.80038964  1
  Br  Br42  1  0.50198540  0.76949009  0.00354854  1
  Br  Br43  1  0.73885831  0.51061717  0.30577923  1
  Br  Br44  1  0.19663075  0.48803902  0.23994242  1
  Br  Br45  1  0.00202851  0.73051778  0.49641943  1
  Br  Br46  1  0.26170958  0.51068131  0.69961556  1
  Br  Br47  1  0.80315821  0.49059461  0.76325136  1
