# generated using pymatgen
data_InAsH10C2(Br3N2)2
_symmetry_space_group_name_H-M   'P 1'
_cell_length_a   8.13006337
_cell_length_b   11.22535660
_cell_length_c   8.11688146
_cell_angle_alpha   89.77463294
_cell_angle_beta   89.99973738
_cell_angle_gamma   89.99990093
_symmetry_Int_Tables_number   1
_chemical_formula_structural   InAsH10C2(Br3N2)2
_chemical_formula_sum   'In2 As2 H20 C4 Br12 N8'
_cell_volume   740.76408997
_cell_formula_units_Z   2
loop_
 _symmetry_equiv_pos_site_id
 _symmetry_equiv_pos_as_xyz
  1  'x, y, z'
loop_
 _atom_site_type_symbol
 _atom_site_label
 _atom_site_symmetry_multiplicity
 _atom_site_fract_x
 _atom_site_fract_y
 _atom_site_fract_z
 _atom_site_occupancy
  C  C0  1  0.49410692  0.29082617  0.49622880  1
  C  C1  1  0.99415194  0.20917018  0.00378591  1
  C  C2  1  0.50566984  0.79083918  0.50342934  1
  C  C3  1  0.00561894  0.70916491  0.99655539  1
  N  N4  1  0.59871432  0.23786113  0.59500862  1
  N  N5  1  0.39385211  0.23743105  0.39410981  1
  N  N6  1  0.09878828  0.26213811  0.90503476  1
  N  N7  1  0.89388767  0.26256181  0.10589716  1
  N  N8  1  0.60494003  0.73749650  0.60710123  1
  N  N9  1  0.40273589  0.73780420  0.40350985  1
  N  N10  1  0.10490152  0.76251758  0.89290035  1
  N  N11  1  0.90265632  0.76218961  0.09645180  1
  H  H12  1  0.48976254  0.38780681  0.49952894  1
  H  H13  1  0.67254706  0.28875820  0.66811535  1
  H  H14  1  0.60945872  0.14757813  0.60563518  1
  H  H15  1  0.31603512  0.28848627  0.32467738  1
  H  H16  1  0.38978003  0.14736131  0.37755149  1
  H  H17  1  0.98979352  0.11219106  0.00046320  1
  H  H18  1  0.17262864  0.21124091  0.83194109  1
  H  H19  1  0.10955535  0.35241917  0.89444196  1
  H  H20  1  0.81604842  0.21150527  0.17530657  1
  H  H21  1  0.88982397  0.35263053  0.12247447  1
  H  H22  1  0.50934011  0.88784658  0.49975229  1
  H  H23  1  0.67808878  0.78864442  0.68077072  1
  H  H24  1  0.61584484  0.64718440  0.61782348  1
  H  H25  1  0.33272107  0.78866030  0.32610576  1
  H  H26  1  0.38597177  0.64775277  0.39994269  1
  H  H27  1  0.00930591  0.61215726  0.00023225  1
  H  H28  1  0.17807056  0.71137720  0.81924528  1
  H  H29  1  0.11578824  0.85282960  0.88218642  1
  H  H30  1  0.83263025  0.71132635  0.17384288  1
  H  H31  1  0.88586518  0.85224055  0.10001524  1
  As  As32  1  0.49844921  0.99998528  0.99806649  1
  As  As33  1  0.99845026  0.50002385  0.50194433  1
  In  In34  1  0.99966858  0.00005440  0.49792368  1
  In  In35  1  0.49967156  0.49995651  0.00208231  1
  Br  Br36  1  0.49875120  0.23579139  0.99557923  1
  Br  Br37  1  0.23651848  0.98857120  0.20018132  1
  Br  Br38  1  0.70276597  0.01200945  0.26338067  1
  Br  Br39  1  0.99872188  0.26422039  0.50446069  1
  Br  Br40  1  0.29734515  0.01092224  0.73420864  1
  Br  Br41  1  0.76527311  0.98858188  0.79429039  1
  Br  Br42  1  0.50171183  0.76425188  0.00344420  1
  Br  Br43  1  0.73650258  0.51142829  0.29982767  1
  Br  Br44  1  0.20275670  0.48799029  0.23661811  1
  Br  Br45  1  0.00175127  0.73575848  0.49651818  1
  Br  Br46  1  0.26526221  0.51143161  0.70571601  1
  Br  Br47  1  0.79733550  0.48908830  0.76579719  1
