# generated using pymatgen
data_AgAsH10C2(Br3N2)2
_symmetry_space_group_name_H-M   'P 1'
_cell_length_a   8.03176906
_cell_length_b   10.78147933
_cell_length_c   8.02312648
_cell_angle_alpha   89.75129164
_cell_angle_beta   90.00018901
_cell_angle_gamma   90.00153024
_symmetry_Int_Tables_number   1
_chemical_formula_structural   AgAsH10C2(Br3N2)2
_chemical_formula_sum   'Ag2 As2 H20 C4 Br12 N8'
_cell_volume   694.75089425
_cell_formula_units_Z   2
loop_
 _symmetry_equiv_pos_site_id
 _symmetry_equiv_pos_as_xyz
  1  'x, y, z'
loop_
 _atom_site_type_symbol
 _atom_site_label
 _atom_site_symmetry_multiplicity
 _atom_site_fract_x
 _atom_site_fract_y
 _atom_site_fract_z
 _atom_site_occupancy
  C  C0  1  0.49454173  0.29194387  0.49615532  1
  C  C1  1  0.99459199  0.20805402  0.00385634  1
  C  C2  1  0.50567820  0.79198407  0.50330725  1
  C  C3  1  0.00562113  0.70801938  0.99668611  1
  N  N4  1  0.60021902  0.23711002  0.59620315  1
  N  N5  1  0.39323332  0.23575283  0.39370991  1
  N  N6  1  0.10029052  0.26289115  0.90383464  1
  N  N7  1  0.89327861  0.26424036  0.10630012  1
  N  N8  1  0.60553755  0.73597184  0.60797197  1
  N  N9  1  0.40198934  0.73695599  0.40200348  1
  N  N10  1  0.10548601  0.76404177  0.89202978  1
  N  N11  1  0.90190381  0.76303666  0.09796333  1
  H  H12  1  0.49010662  0.39281727  0.49853552  1
  H  H13  1  0.67386563  0.29031861  0.67108233  1
  H  H14  1  0.61281865  0.14319507  0.60568411  1
  H  H15  1  0.31550081  0.28858794  0.32179218  1
  H  H16  1  0.38718871  0.14181898  0.38013741  1
  H  H17  1  0.99013865  0.10718120  0.00145676  1
  H  H18  1  0.17393982  0.20968492  0.82895794  1
  H  H19  1  0.11291597  0.35680629  0.89437820  1
  H  H20  1  0.81552910  0.21140249  0.17819826  1
  H  H21  1  0.88724773  0.35817278  0.11988724  1
  H  H22  1  0.50963177  0.89287034  0.49998994  1
  H  H23  1  0.68076100  0.78887581  0.68180689  1
  H  H24  1  0.61388858  0.64195861  0.62043775  1
  H  H25  1  0.32997977  0.79011518  0.32485870  1
  H  H26  1  0.38706497  0.64312607  0.39610249  1
  H  H27  1  0.00959780  0.60713399  1.00001376  1
  H  H28  1  0.18073437  0.71114768  0.81821337  1
  H  H29  1  0.11381985  0.85805541  0.87956096  1
  H  H30  1  0.82989249  0.70986904  0.17510064  1
  H  H31  1  0.88695302  0.85686450  0.10385044  1
  As  As32  1  0.49761113  1.00000069  0.99791194  1
  As  As33  1  0.99762108  0.50000960  0.50210420  1
  Ag  Ag34  1  0.99375028  -0.00000630  0.49957463  1
  Ag  Ag35  1  0.49376899  0.50001710  0.00046389  1
  Br  Br36  1  0.49934291  0.24660486  0.99647970  1
  Br  Br37  1  0.23490416  0.98717361  0.20452466  1
  Br  Br38  1  0.70909175  0.01134023  0.26480239  1
  Br  Br39  1  0.99930267  0.25340621  0.50355920  1
  Br  Br40  1  0.29338013  0.01265831  0.73216044  1
  Br  Br41  1  0.76746106  0.98883874  0.78867346  1
  Br  Br42  1  0.50249570  0.75329773  0.00296575  1
  Br  Br43  1  0.73488879  0.51281599  0.29547101  1
  Br  Br44  1  0.20908939  0.48866276  0.23519360  1
  Br  Br45  1  0.00254311  0.74671291  0.49698973  1
  Br  Br46  1  0.26744706  0.51118021  0.71132557  1
  Br  Br47  1  0.79337460  0.48734618  0.76783831  1
