# generated using pymatgen
data_SrH10PbC2(Br3N2)2
_symmetry_space_group_name_H-M   'P 1'
_cell_length_a   8.29959287
_cell_length_b   11.73262699
_cell_length_c   8.28965092
_cell_angle_alpha   90.02762228
_cell_angle_beta   89.99990701
_cell_angle_gamma   89.99760721
_symmetry_Int_Tables_number   1
_chemical_formula_structural   SrH10PbC2(Br3N2)2
_chemical_formula_sum   'Sr2 H20 Pb2 C4 Br12 N8'
_cell_volume   807.21318017
_cell_formula_units_Z   2
loop_
 _symmetry_equiv_pos_site_id
 _symmetry_equiv_pos_as_xyz
  1  'x, y, z'
loop_
 _atom_site_type_symbol
 _atom_site_label
 _atom_site_symmetry_multiplicity
 _atom_site_fract_x
 _atom_site_fract_y
 _atom_site_fract_z
 _atom_site_occupancy
  C  C0  1  0.49236129  0.29162415  0.49598036  1
  C  C1  1  0.99238354  0.20845329  0.00400079  1
  C  C2  1  0.50782172  0.79154797  0.50393056  1
  C  C3  1  0.00770745  0.70837139  0.99606844  1
  N  N4  1  0.59462572  0.24086795  0.59298150  1
  N  N5  1  0.39488205  0.23986043  0.39524772  1
  N  N6  1  0.09467304  0.25921341  0.90707477  1
  N  N7  1  0.89488305  0.26020786  0.10477067  1
  N  N8  1  0.60494392  0.73980494  0.60497176  1
  N  N9  1  0.40574417  0.74077635  0.40669885  1
  N  N10  1  0.10489730  0.76010572  0.89503882  1
  N  N11  1  0.90563881  0.75914441  0.09327784  1
  H  H12  1  0.48786364  0.38446791  0.49973128  1
  H  H13  1  0.66537884  0.28856179  0.66758087  1
  H  H14  1  0.60759418  0.15443642  0.59641706  1
  H  H15  1  0.32006766  0.28747392  0.32428337  1
  H  H16  1  0.38983458  0.15330999  0.38439151  1
  H  H17  1  0.98782559  0.11560783  0.00019851  1
  H  H18  1  0.16543960  0.21151979  0.83245193  1
  H  H19  1  0.10771189  0.34563616  0.90370678  1
  H  H20  1  0.82005032  0.21260305  0.17567487  1
  H  H21  1  0.88988662  0.34676313  0.11567783  1
  H  H22  1  0.51249306  0.88438822  0.50010899  1
  H  H23  1  0.68034079  0.78739129  0.67539177  1
  H  H24  1  0.60839060  0.65331513  0.61735595  1
  H  H25  1  0.33445494  0.78849022  0.33266454  1
  H  H26  1  0.39400980  0.65430192  0.40191673  1
  H  H27  1  0.01236811  0.61552842  0.99983291  1
  H  H28  1  0.18027129  0.71254172  0.82464690  1
  H  H29  1  0.10834528  0.84661867  0.88272362  1
  H  H30  1  0.83430503  0.71140754  0.16727942  1
  H  H31  1  0.89390724  0.84560824  0.09809858  1
  Sr  Sr32  1  0.49964953  0.99993615  0.99722244  1
  Sr  Sr33  1  0.99966181  0.50008460  0.50278815  1
  Pb  Pb34  1  0.00055421  0.00008407  0.49724158  1
  Pb  Pb35  1  0.50054146  0.49993487  0.00275824  1
  Br  Br36  1  0.49734287  0.25020358  0.99287723  1
  Br  Br37  1  0.20032256  0.98209733  0.19835766  1
  Br  Br38  1  0.69862799  0.02362358  0.29853348  1
  Br  Br39  1  0.99733874  0.24981873  0.50715300  1
  Br  Br40  1  0.29896020  0.01793833  0.69756787  1
  Br  Br41  1  0.80122821  0.97638624  0.79878889  1
  Br  Br42  1  0.50274950  0.74977851  0.00695156  1
  Br  Br43  1  0.70039986  0.51789978  0.30156990  1
  Br  Br44  1  0.19866025  0.47641091  0.20150181  1
  Br  Br45  1  0.00281561  0.75023831  0.49301437  1
  Br  Br46  1  0.30119717  0.52360845  0.70125256  1
  Br  Br47  1  0.79886826  0.48207031  0.80235054  1
