# generated using pymatgen
data_SrHgH10C2(Br3N2)2
_symmetry_space_group_name_H-M   'P 1'
_cell_length_a   8.24130409
_cell_length_b   11.22389960
_cell_length_c   8.23146735
_cell_angle_alpha   90.06192948
_cell_angle_beta   90.00010892
_cell_angle_gamma   89.99864544
_symmetry_Int_Tables_number   1
_chemical_formula_structural   SrHgH10C2(Br3N2)2
_chemical_formula_sum   'Sr2 Hg2 H20 C4 Br12 N8'
_cell_volume   761.40674297
_cell_formula_units_Z   2
loop_
 _symmetry_equiv_pos_site_id
 _symmetry_equiv_pos_as_xyz
  1  'x, y, z'
loop_
 _atom_site_type_symbol
 _atom_site_label
 _atom_site_symmetry_multiplicity
 _atom_site_fract_x
 _atom_site_fract_y
 _atom_site_fract_z
 _atom_site_occupancy
  C  C0  1  0.49357786  0.29120298  0.49621598  1
  C  C1  1  0.99363356  0.20878004  0.00379742  1
  C  C2  1  0.50659733  0.79118675  0.50390117  1
  C  C3  1  0.00653763  0.70882363  0.99607761  1
  N  N4  1  0.59611223  0.23836008  0.59443432  1
  N  N5  1  0.39476741  0.23783555  0.39466998  1
  N  N6  1  0.09619880  0.26163528  0.90561947  1
  N  N7  1  0.89480516  0.26215743  0.10534008  1
  N  N8  1  0.60499297  0.73786743  0.60565375  1
  N  N9  1  0.40404800  0.73838520  0.40550703  1
  N  N10  1  0.10495119  0.76214540  0.89435149  1
  N  N11  1  0.90396305  0.76161030  0.09444893  1
  H  H12  1  0.48981785  0.38819887  0.49961243  1
  H  H13  1  0.66582524  0.28935067  0.67010855  1
  H  H14  1  0.61209217  0.14828223  0.59768358  1
  H  H15  1  0.32196699  0.28906424  0.32222551  1
  H  H16  1  0.38475703  0.14747357  0.38488135  1
  H  H17  1  0.98985521  0.11179433  0.00037673  1
  H  H18  1  0.16592231  0.21063918  0.82995166  1
  H  H19  1  0.11220629  0.35170345  0.90240926  1
  H  H20  1  0.82198224  0.21092198  0.17775272  1
  H  H21  1  0.88480783  0.35251126  0.11514215  1
  H  H22  1  0.51073824  0.88819923  0.50040103  1
  H  H23  1  0.68110863  0.78903643  0.67486424  1
  H  H24  1  0.60863903  0.64771166  0.62164542  1
  H  H25  1  0.33133930  0.78937256  0.33293414  1
  H  H26  1  0.39385385  0.64804738  0.39627496  1
  H  H27  1  0.01068935  0.61180590  0.99956593  1
  H  H28  1  0.18109069  0.71098660  0.82515396  1
  H  H29  1  0.10859447  0.85230576  0.87837546  1
  H  H30  1  0.83123642  0.71061916  0.16699650  1
  H  H31  1  0.89374064  0.85195140  0.10367925  1
  Sr  Sr32  1  0.49966133  0.99993878  0.99768527  1
  Sr  Sr33  1  0.99965982  0.50008050  0.50232798  1
  Hg  Hg34  1  0.00103016  0.00008615  0.49728743  1
  Hg  Hg35  1  0.50102429  0.49993223  0.00271599  1
  Br  Br36  1  0.49722778  0.26432510  0.99403010  1
  Br  Br37  1  0.20622112  0.98427511  0.20937360  1
  Br  Br38  1  0.71002113  0.01852448  0.29286055  1
  Br  Br39  1  0.99718130  0.23568914  0.50602888  1
  Br  Br40  1  0.28889728  0.01630048  0.70400554  1
  Br  Br41  1  0.79514685  0.98092174  0.78841186  1
  Br  Br42  1  0.50160224  0.73565919  0.00617090  1
  Br  Br43  1  0.70620436  0.51572361  0.29063723  1
  Br  Br44  1  0.21000588  0.48149144  0.20713476  1
  Br  Br45  1  0.00164944  0.76435988  0.49379032  1
  Br  Br46  1  0.29515376  0.51909442  0.71159228  1
  Br  Br47  1  0.78888360  0.48369479  0.79600001  1
