# generated using pymatgen
data_SrH10PtC2(Br3N2)2
_symmetry_space_group_name_H-M   'P 1'
_cell_length_a   8.08511525
_cell_length_b   10.60872654
_cell_length_c   8.80672575
_cell_angle_alpha   89.07375338
_cell_angle_beta   89.99354334
_cell_angle_gamma   89.98106303
_symmetry_Int_Tables_number   1
_chemical_formula_structural   SrH10PtC2(Br3N2)2
_chemical_formula_sum   'Sr2 H20 Pt2 C4 Br12 N8'
_cell_volume   755.27857257
_cell_formula_units_Z   2
loop_
 _symmetry_equiv_pos_site_id
 _symmetry_equiv_pos_as_xyz
  1  'x, y, z'
loop_
 _atom_site_type_symbol
 _atom_site_label
 _atom_site_symmetry_multiplicity
 _atom_site_fract_x
 _atom_site_fract_y
 _atom_site_fract_z
 _atom_site_occupancy
  C  C0  1  0.48583794  0.28609909  0.48120569  1
  C  C1  1  0.98600530  0.21387886  0.01857713  1
  C  C2  1  0.50186148  0.79584851  0.51604104  1
  C  C3  1  0.00163905  0.70418501  0.98397900  1
  N  N4  1  0.56171176  0.24086038  0.60120933  1
  N  N5  1  0.39405911  0.22179726  0.38607017  1
  N  N6  1  0.06220349  0.25928311  0.89885747  1
  N  N7  1  0.89450045  0.27814670  0.11404114  1
  N  N8  1  0.60035366  0.73608060  0.61011120  1
  N  N9  1  0.43207527  0.74785405  0.39433549  1
  N  N10  1  0.10002738  0.76388646  0.88977057  1
  N  N11  1  0.93184852  0.75230687  0.10564260  1
  H  H12  1  0.50377727  0.38608419  0.45503319  1
  H  H13  1  0.62864816  0.30083103  0.66767450  1
  H  H14  1  0.56144532  0.14786966  0.63384140  1
  H  H15  1  0.34397373  0.26780505  0.29423032  1
  H  H16  1  0.35679846  0.13114273  0.40625618  1
  H  H17  1  1.00337563  0.11374422  0.04420212  1
  H  H18  1  0.12890102  0.19930907  0.83213621  1
  H  H19  1  0.06243653  0.35237763  0.86665793  1
  H  H20  1  0.84404448  0.23195584  0.20556323  1
  H  H21  1  0.85766384  0.36897667  0.09429848  1
  H  H22  1  0.47327413  0.89363396  0.54256372  1
  H  H23  1  0.65381744  0.78651028  0.69596832  1
  H  H24  1  0.63063423  0.64312795  0.59974136  1
  H  H25  1  0.35340528  0.80317206  0.33034366  1
  H  H26  1  0.46879908  0.66262082  0.35299679  1
  H  H27  1  0.97313790  0.60637826  0.95761188  1
  H  H28  1  0.15354102  0.71338637  0.80396638  1
  H  H29  1  0.13022534  0.85684818  0.90000367  1
  H  H30  1  0.85343316  0.69696522  0.16985189  1
  H  H31  1  0.96866837  0.83751321  0.14693502  1
  Sr  Sr32  1  0.56542519  0.97784402  0.06565390  1
  Sr  Sr33  1  0.06547447  0.52189443  0.43454983  1
  Pt  Pt34  1  0.00968807  0.02388680  0.50599078  1
  Pt  Pt35  1  0.50979758  0.47607152  0.99408068  1
  Br  Br36  1  0.48011082  0.24657208  0.98177841  1
  Br  Br37  1  0.22699534  0.97040777  0.17388031  1
  Br  Br38  1  0.76034193  0.02211295  0.34079674  1
  Br  Br39  1  0.97973459  0.25336363  0.51856974  1
  Br  Br40  1  0.24355445  0.02817400  0.68358938  1
  Br  Br41  1  0.74881013  0.98692158  0.79182307  1
  Br  Br42  1  0.51373541  0.70773446  0.99250116  1
  Br  Br43  1  0.72718269  0.52962169  0.32598815  1
  Br  Br44  1  0.26036341  0.47803907  0.15923677  1
  Br  Br45  1  0.01390401  0.79220946  0.50724004  1
  Br  Br46  1  0.24905681  0.51306957  0.70820101  1
  Br  Br47  1  0.74372064  0.47166065  0.81650770  1
