# generated using pymatgen
data_SrH10OsC2(Br3N2)2
_symmetry_space_group_name_H-M   'P 1'
_cell_length_a   7.94484299
_cell_length_b   10.96878178
_cell_length_c   7.93319293
_cell_angle_alpha   90.13473895
_cell_angle_beta   90.00020552
_cell_angle_gamma   89.99772511
_symmetry_Int_Tables_number   1
_chemical_formula_structural   SrH10OsC2(Br3N2)2
_chemical_formula_sum   'Sr2 H20 Os2 C4 Br12 N8'
_cell_volume   691.33816114
_cell_formula_units_Z   2
loop_
 _symmetry_equiv_pos_site_id
 _symmetry_equiv_pos_as_xyz
  1  'x, y, z'
loop_
 _atom_site_type_symbol
 _atom_site_label
 _atom_site_symmetry_multiplicity
 _atom_site_fract_x
 _atom_site_fract_y
 _atom_site_fract_z
 _atom_site_occupancy
  C  C0  1  0.49468979  0.29136584  0.49645711  1
  C  C1  1  0.99473931  0.20862950  0.00355114  1
  C  C2  1  0.50571811  0.79141095  0.50402985  1
  C  C3  1  0.00566597  0.70859490  0.99595250  1
  N  N4  1  0.60033426  0.23708885  0.59817000  1
  N  N5  1  0.39265834  0.23637137  0.39170328  1
  N  N6  1  0.10041428  0.26290322  0.90187480  1
  N  N7  1  0.89270631  0.26362199  0.10830783  1
  N  N8  1  0.60741076  0.73642395  0.60889882  1
  N  N9  1  0.39969969  0.73713640  0.40248502  1
  N  N10  1  0.10736789  0.76359070  0.89110493  1
  N  N11  1  0.89962280  0.76286492  0.09748498  1
  H  H12  1  0.49124931  0.39056096  0.49940039  1
  H  H13  1  0.67073617  0.28901249  0.67867086  1
  H  H14  1  0.62106681  0.14526208  0.59827861  1
  H  H15  1  0.31904534  0.28836886  0.31452381  1
  H  H16  1  0.37676553  0.14403959  0.38632564  1
  H  H17  1  0.99127500  0.10943426  0.00057227  1
  H  H18  1  0.17081302  0.21098188  0.82136723  1
  H  H19  1  0.12117267  0.35472728  0.90180315  1
  H  H20  1  0.81906777  0.21162567  0.18545939  1
  H  H21  1  0.87682815  0.35595667  0.11370694  1
  H  H22  1  0.51000632  0.89057334  0.50084896  1
  H  H23  1  0.68851468  0.78828738  0.67871491  1
  H  H24  1  0.60719837  0.64459495  0.62985057  1
  H  H25  1  0.32260460  0.78915163  0.32888801  1
  H  H26  1  0.39349606  0.64482183  0.38719679  1
  H  H27  1  0.00996530  0.60943404  0.99912278  1
  H  H28  1  0.18849082  0.71173310  0.82129829  1
  H  H29  1  0.10715111  0.85541968  0.87016986  1
  H  H30  1  0.82252168  0.71084137  0.17106040  1
  H  H31  1  0.89340049  0.85517746  0.11277978  1
  Sr  Sr32  1  0.49833890  0.99998735  0.99755494  1
  Sr  Sr33  1  0.99834117  0.50002343  0.50246010  1
  Os  Os34  1  0.00000623  1.00000090  0.49817246  1
  Os  Os35  1  0.50000118  0.50000726  0.00183259  1
  Br  Br36  1  0.49858662  0.26752328  0.99709185  1
  Br  Br37  1  0.19526668  0.98924837  0.23929078  1
  Br  Br38  1  0.74171231  0.00971454  0.30176192  1
  Br  Br39  1  0.99853996  0.23248610  0.50295904  1
  Br  Br40  1  0.25908997  0.01130672  0.69278861  1
  Br  Br41  1  0.80464544  0.98962742  0.75724628  1
  Br  Br42  1  0.50117720  0.73250570  0.00475930  1
  Br  Br43  1  0.69526313  0.51075320  0.26071482  1
  Br  Br44  1  0.24170066  0.49030353  0.19823673  1
  Br  Br45  1  0.00122552  0.76750289  0.49520589  1
  Br  Br46  1  0.30464678  0.51038047  0.74275466  1
  Br  Br47  1  0.75908087  0.48868471  0.80721588  1
