# generated using pymatgen
data_BaSrH10C2(Br3N2)2
_symmetry_space_group_name_H-M   'P 1'
_cell_length_a   8.36529093
_cell_length_b   12.15645790
_cell_length_c   8.38773944
_cell_angle_alpha   90.10656551
_cell_angle_beta   89.99583484
_cell_angle_gamma   89.99750500
_symmetry_Int_Tables_number   1
_chemical_formula_structural   BaSrH10C2(Br3N2)2
_chemical_formula_sum   'Ba2 Sr2 H20 C4 Br12 N8'
_cell_volume   852.96709564
_cell_formula_units_Z   2
loop_
 _symmetry_equiv_pos_site_id
 _symmetry_equiv_pos_as_xyz
  1  'x, y, z'
loop_
 _atom_site_type_symbol
 _atom_site_label
 _atom_site_symmetry_multiplicity
 _atom_site_fract_x
 _atom_site_fract_y
 _atom_site_fract_z
 _atom_site_occupancy
  C  C0  1  0.49640136  0.30754745  0.50760811  1
  C  C1  1  0.99636133  0.19255196  0.99230494  1
  C  C2  1  0.50322112  0.80750491  0.49166418  1
  C  C3  1  0.00310930  0.69240722  0.00834230  1
  N  N4  1  0.61170254  0.26057543  0.58877587  1
  N  N5  1  0.41933085  0.26115671  0.38882098  1
  N  N6  1  0.11172853  0.23951428  0.91125171  1
  N  N7  1  0.91929506  0.23889530  0.11115289  1
  N  N8  1  0.57968651  0.76115432  0.61042275  1
  N  N9  1  0.38781077  0.76057540  0.41003195  1
  N  N10  1  0.07966584  0.73884176  0.88970893  1
  N  N11  1  0.88771906  0.73929908  0.09004182  1
  H  H12  1  0.46108684  0.39076638  0.54227279  1
  H  H13  1  0.66877625  0.30268437  0.67764330  1
  H  H14  1  0.65176252  0.18374128  0.56079935  1
  H  H15  1  0.33216936  0.30434868  0.33060043  1
  H  H16  1  0.45102073  0.18538906  0.34634633  1
  H  H17  1  0.96096356  0.10938016  0.95750696  1
  H  H18  1  0.16878401  0.19744575  0.82231491  1
  H  H19  1  0.15188268  0.31630184  0.93936726  1
  H  H20  1  0.83207110  0.19571390  0.16928562  1
  H  H21  1  0.95103674  0.31461449  0.15375109  1
  H  H22  1  0.53876656  0.89060852  0.45707587  1
  H  H23  1  0.66368253  0.80509401  0.67234163  1
  H  H24  1  0.54923021  0.68472080  0.65038868  1
  H  H25  1  0.33464203  0.80176316  0.31815332  1
  H  H26  1  0.34431557  0.68500784  0.44032354  1
  H  H27  1  0.03857294  0.60925297  0.04275225  1
  H  H28  1  0.16365221  0.69492684  0.82772288  1
  H  H29  1  0.04931193  0.81534236  0.84991745  1
  H  H30  1  0.83445657  0.69802930  0.18179799  1
  H  H31  1  0.84428224  0.81491853  0.05991391  1
  Sr  Sr32  1  0.49279559  0.00211832  0.98390756  1
  Sr  Sr33  1  0.99289029  0.49788391  0.51605117  1
  Ba  Ba34  1  0.01053394  0.99796274  0.48261603  1
  Ba  Ba35  1  0.51058319  0.50202826  0.01732875  1
  Br  Br36  1  0.50660855  0.24601719  0.98865341  1
  Br  Br37  1  0.18577758  0.96951184  0.15780974  1
  Br  Br38  1  0.68020316  0.03983288  0.29533073  1
  Br  Br39  1  0.00656016  0.25397980  0.51131084  1
  Br  Br40  1  0.32870348  0.03215153  0.67320464  1
  Br  Br41  1  0.80757112  0.95953166  0.80737937  1
  Br  Br42  1  0.49434357  0.75836438  0.00881036  1
  Br  Br43  1  0.68595716  0.53047110  0.34203565  1
  Br  Br44  1  0.18030163  0.46016721  0.20464793  1
  Br  Br45  1  0.99437670  0.74163165  0.49127404  1
  Br  Br46  1  0.30759766  0.54048419  0.69264069  1
  Br  Br47  1  0.82871670  0.46785225  0.82670185  1
