# generated using pymatgen
data_SrSnH10C2(Br3N2)2
_symmetry_space_group_name_H-M   'P 1'
_cell_length_a   8.27227136
_cell_length_b   11.64130888
_cell_length_c   8.26589491
_cell_angle_alpha   90.02440808
_cell_angle_beta   89.99983426
_cell_angle_gamma   89.99797483
_symmetry_Int_Tables_number   1
_chemical_formula_structural   SrSnH10C2(Br3N2)2
_chemical_formula_sum   'Sr2 Sn2 H20 C4 Br12 N8'
_cell_volume   796.00615315
_cell_formula_units_Z   2
loop_
 _symmetry_equiv_pos_site_id
 _symmetry_equiv_pos_as_xyz
  1  'x, y, z'
loop_
 _atom_site_type_symbol
 _atom_site_label
 _atom_site_symmetry_multiplicity
 _atom_site_fract_x
 _atom_site_fract_y
 _atom_site_fract_z
 _atom_site_occupancy
  C  C0  1  0.49263183  0.29089766  0.49607062  1
  C  C1  1  0.99260210  0.20928891  0.00392289  1
  C  C2  1  0.50755805  0.79071800  0.50384550  1
  C  C3  1  0.00743704  0.70909515  0.99615501  1
  N  N4  1  0.59497899  0.23999716  0.59382672  1
  N  N5  1  0.39512978  0.23819486  0.39529051  1
  N  N6  1  0.09500993  0.26017705  0.90621093  1
  N  N7  1  0.89514722  0.26196088  0.10470574  1
  N  N8  1  0.60491003  0.73803589  0.60472559  1
  N  N9  1  0.40517076  0.73982360  0.40609519  1
  N  N10  1  0.10484147  0.76180844  0.89529588  1
  N  N11  1  0.90505885  0.76000195  0.09391363  1
  H  H12  1  0.48802170  0.38444456  0.49904002  1
  H  H13  1  0.66563634  0.28830187  0.66874780  1
  H  H14  1  0.60842999  0.15297935  0.59760617  1
  H  H15  1  0.32041444  0.28576039  0.32330452  1
  H  H16  1  0.38979092  0.15093729  0.38561969  1
  H  H17  1  0.98793354  0.11572755  0.00086036  1
  H  H18  1  0.16565594  0.21189452  0.83126907  1
  H  H19  1  0.10853867  0.34719848  0.90252297  1
  H  H20  1  0.82037242  0.21441104  0.17666656  1
  H  H21  1  0.88985005  0.34923543  0.11447627  1
  H  H22  1  0.51236777  0.88426603  0.50076280  1
  H  H23  1  0.68084095  0.78556835  0.67552373  1
  H  H24  1  0.60768980  0.65087521  0.61694970  1
  H  H25  1  0.33331626  0.78813781  0.33239855  1
  H  H26  1  0.39395631  0.65270523  0.39999288  1
  H  H27  1  0.01221088  0.61556299  0.99917593  1
  H  H28  1  0.18075378  0.71426375  0.82450006  1
  H  H29  1  0.10764117  0.84895436  0.88314636  1
  H  H30  1  0.83317525  0.71166015  0.16756466  1
  H  H31  1  0.89387501  0.84711021  0.10005841  1
  Sr  Sr32  1  0.49951909  0.99996807  0.99679808  1
  Sr  Sr33  1  0.99954392  0.50004267  0.50320710  1
  Sn  Sn34  1  0.00087511  0.00003607  0.49688490  1
  Sn  Sn35  1  0.50086958  0.49997360  0.00310598  1
  Br  Br36  1  0.49718851  0.25264286  0.99419731  1
  Br  Br37  1  0.19987265  0.98311638  0.20117791  1
  Br  Br38  1  0.70300264  0.02091577  0.29731425  1
  Br  Br39  1  0.99719594  0.24737493  0.50581232  1
  Br  Br40  1  0.29564598  0.01683657  0.69668156  1
  Br  Br41  1  0.80047468  0.97914035  0.79388391  1
  Br  Br42  1  0.50288408  0.74738302  0.00568496  1
  Br  Br43  1  0.70002468  0.51689044  0.29868580  1
  Br  Br44  1  0.20309126  0.47914049  0.20275841  1
  Br  Br45  1  0.00296500  0.75262005  0.49429748  1
  Br  Br46  1  0.30040778  0.52083287  0.70619816  1
  Br  Br47  1  0.79551122  0.48315470  0.80317190  1
