# generated using pymatgen
data_CaHgH12C2(I3N)2
_symmetry_space_group_name_H-M   'P 1'
_cell_length_a   8.39786084
_cell_length_b   12.28706112
_cell_length_c   8.33361322
_cell_angle_alpha   90.00732581
_cell_angle_beta   90.01676426
_cell_angle_gamma   90.00011072
_symmetry_Int_Tables_number   1
_chemical_formula_structural   CaHgH12C2(I3N)2
_chemical_formula_sum   'Ca2 Hg2 H24 C4 I12 N4'
_cell_volume   859.90408228
_cell_formula_units_Z   2
loop_
 _symmetry_equiv_pos_site_id
 _symmetry_equiv_pos_as_xyz
  1  'x, y, z'
loop_
 _atom_site_type_symbol
 _atom_site_label
 _atom_site_symmetry_multiplicity
 _atom_site_fract_x
 _atom_site_fract_y
 _atom_site_fract_z
 _atom_site_occupancy
  C  C0  1  0.39489310  0.25007080  0.41432633  1
  C  C1  1  0.89615298  0.25014856  0.08685817  1
  C  C2  1  0.60510313  0.74993065  0.58568709  1
  C  C3  1  0.10385441  0.74985193  0.91315627  1
  N  N4  1  0.53626880  0.24997140  0.52083079  1
  N  N5  1  0.03677785  0.25007065  0.97944514  1
  N  N6  1  0.46372879  0.75003221  0.47918278  1
  N  N7  1  0.96323178  0.74992641  0.02057293  1
  H  H8  1  0.43536798  0.25033421  0.28942677  1
  H  H9  1  0.32431395  0.17713954  0.43831572  1
  H  H10  1  0.32500682  0.32318456  0.43860281  1
  H  H11  1  0.60595368  0.18151199  0.49874682  1
  H  H12  1  0.60604585  0.31824192  0.49796009  1
  H  H13  1  0.50567586  0.25033466  0.64244598  1
  H  H14  1  0.93749768  0.24993181  0.21144874  1
  H  H15  1  0.82595593  0.17705405  0.06315621  1
  H  H16  1  0.82551161  0.32312533  0.06323914  1
  H  H17  1  0.10658023  0.18175906  0.00197894  1
  H  H18  1  0.10671210  0.31849851  0.00107659  1
  H  H19  1  0.00543385  0.24969562  0.85801937  1
  H  H20  1  0.56462990  0.74966913  0.71058714  1
  H  H21  1  0.67498835  0.67681751  0.56141040  1
  H  H22  1  0.67568607  0.82286309  0.56169759  1
  H  H23  1  0.39404437  0.81849316  0.50126853  1
  H  H24  1  0.39395053  0.68176293  0.50205261  1
  H  H25  1  0.49432118  0.74967046  0.35756850  1
  H  H26  1  0.06250848  0.75007045  0.78856640  1
  H  H27  1  0.17405211  0.82294651  0.93686102  1
  H  H28  1  0.17449689  0.67687465  0.93677192  1
  H  H29  1  0.89342606  0.81823762  0.99804027  1
  H  H30  1  0.89329966  0.68149788  0.99893992  1
  H  H31  1  0.99457666  0.75030156  0.14199717  1
  Ca  Ca32  1  0.49999976  0.00000950  0.00000815  1
  Ca  Ca33  1  0.99998715  0.50000172  0.49999180  1
  Hg  Hg34  1  0.00000089  0.00000212  0.50001451  1
  Hg  Hg35  1  0.49999558  0.50001832  0.99998330  1
  I  I36  1  0.47322692  0.24982686  0.94180731  1
  I  I37  1  0.17784983  0.01397830  0.18244193  1
  I  I38  1  0.68609818  0.01238212  0.32539115  1
  I  I39  1  0.97255989  0.25020002  0.55879930  1
  I  I40  1  0.31390797  0.98762214  0.67462315  1
  I  I41  1  0.82215384  0.98602073  0.81757857  1
  I  I42  1  0.52677812  0.75018586  0.05820711  1
  I  I43  1  0.67774026  0.48588613  0.31749810  1
  I  I44  1  0.18613601  0.48779249  0.17467375  1
  I  I45  1  0.02743657  0.74980465  0.44121747  1
  I  I46  1  0.32224197  0.51411599  0.68249409  1
  I  I47  1  0.81386416  0.51221249  0.82532875  1
