# generated using pymatgen
data_SrCdH10C2(Br3N2)2
_symmetry_space_group_name_H-M   'P 1'
_cell_length_a   8.17155398
_cell_length_b   11.25999381
_cell_length_c   8.16178142
_cell_angle_alpha   90.06513586
_cell_angle_beta   90.00003972
_cell_angle_gamma   89.99878907
_symmetry_Int_Tables_number   1
_chemical_formula_structural   SrCdH10C2(Br3N2)2
_chemical_formula_sum   'Sr2 Cd2 H20 C4 Br12 N8'
_cell_volume   750.97846750
_cell_formula_units_Z   2
loop_
 _symmetry_equiv_pos_site_id
 _symmetry_equiv_pos_as_xyz
  1  'x, y, z'
loop_
 _atom_site_type_symbol
 _atom_site_label
 _atom_site_symmetry_multiplicity
 _atom_site_fract_x
 _atom_site_fract_y
 _atom_site_fract_z
 _atom_site_occupancy
  C  C0  1  0.49372244  0.29086382  0.49626248  1
  C  C1  1  0.99377099  0.20912696  0.00375403  1
  C  C2  1  0.50640600  0.79087267  0.50394576  1
  C  C3  1  0.00634791  0.70913474  0.99603656  1
  N  N4  1  0.59678741  0.23815763  0.59537215  1
  N  N5  1  0.39440643  0.23760242  0.39381134  1
  N  N6  1  0.09687250  0.26183384  0.90467646  1
  N  N7  1  0.89444576  0.26238586  0.10619649  1
  N  N8  1  0.60569583  0.73763484  0.60623708  1
  N  N9  1  0.40294314  0.73815195  0.40506530  1
  N  N10  1  0.10565552  0.76238126  0.89376946  1
  N  N11  1  0.90286418  0.76184776  0.09489250  1
  H  H12  1  0.48997617  0.38758242  0.49955817  1
  H  H13  1  0.66666968  0.28882811  0.67219160  1
  H  H14  1  0.61358674  0.14843250  0.59810685  1
  H  H15  1  0.32138583  0.28847563  0.32025826  1
  H  H16  1  0.38342896  0.14755328  0.38480610  1
  H  H17  1  0.99000957  0.11240985  0.00042912  1
  H  H18  1  0.16676056  0.21116376  0.82786586  1
  H  H19  1  0.11369676  0.35155601  0.90198212  1
  H  H20  1  0.82140084  0.21151355  0.17972066  1
  H  H21  1  0.88347932  0.35243693  0.11521819  1
  H  H22  1  0.51054095  0.88757579  0.50049498  1
  H  H23  1  0.68301568  0.78845342  0.67554992  1
  H  H24  1  0.60876335  0.64785847  0.62300032  1
  H  H25  1  0.32922873  0.78885290  0.33216521  1
  H  H26  1  0.39353777  0.64814971  0.39473461  1
  H  H27  1  0.01049439  0.61243059  0.99947399  1
  H  H28  1  0.18299814  0.71156781  0.82446705  1
  H  H29  1  0.10872047  0.85215635  0.87702131  1
  H  H30  1  0.82912830  0.71113749  0.16776937  1
  H  H31  1  0.89343066  0.85184775  0.10522558  1
  Sr  Sr32  1  0.49945413  0.99996047  0.99762158  1
  Sr  Sr33  1  0.99945292  0.50005545  0.50239103  1
  Cd  Cd34  1  0.00084542  0.00005606  0.49765072  1
  Cd  Cd35  1  0.50083873  0.49995939  0.00235243  1
  Br  Br36  1  0.49761192  0.26189962  0.99488127  1
  Br  Br37  1  0.20403894  0.98597995  0.21692417  1
  Br  Br38  1  0.71821776  0.01604634  0.29454384  1
  Br  Br39  1  0.99756697  0.23811294  0.50517011  1
  Br  Br40  1  0.28131469  0.01466596  0.70176117  1
  Br  Br41  1  0.79698243  0.98331561  0.78026292  1
  Br  Br42  1  0.50148149  0.73810292  0.00566871  1
  Br  Br43  1  0.70402473  0.51402270  0.28308517  1
  Br  Br44  1  0.21820354  0.48396843  0.20545064  1
  Br  Br45  1  0.00152530  0.76191269  0.49429755  1
  Br  Br46  1  0.29698794  0.51669674  0.71974082  1
  Br  Br47  1  0.78130144  0.48533163  0.79824372  1
