# generated using pymatgen
data_SrH10RuC2(Br3N2)2
_symmetry_space_group_name_H-M   'P 1'
_cell_length_a   7.95623721
_cell_length_b   10.99254507
_cell_length_c   7.94466162
_cell_angle_alpha   90.15406588
_cell_angle_beta   89.99994089
_cell_angle_gamma   89.99768955
_symmetry_Int_Tables_number   1
_chemical_formula_structural   SrH10RuC2(Br3N2)2
_chemical_formula_sum   'Sr2 H20 Ru2 C4 Br12 N8'
_cell_volume   694.83200050
_cell_formula_units_Z   2
loop_
 _symmetry_equiv_pos_site_id
 _symmetry_equiv_pos_as_xyz
  1  'x, y, z'
loop_
 _atom_site_type_symbol
 _atom_site_label
 _atom_site_symmetry_multiplicity
 _atom_site_fract_x
 _atom_site_fract_y
 _atom_site_fract_z
 _atom_site_occupancy
  C  C0  1  0.49462570  0.29133666  0.49644921  1
  C  C1  1  0.99467697  0.20865705  0.00355827  1
  C  C2  1  0.50575753  0.79136727  0.50397700  1
  C  C3  1  0.00570764  0.70864000  0.99600371  1
  N  N4  1  0.59988274  0.23713732  0.59819571  1
  N  N5  1  0.39296653  0.23644881  0.39166667  1
  N  N6  1  0.09996294  0.26285555  0.90184946  1
  N  N7  1  0.89301179  0.26354583  0.10834455  1
  N  N8  1  0.60751129  0.73649863  0.60845782  1
  N  N9  1  0.39973290  0.73716988  0.40282186  1
  N  N10  1  0.10746812  0.76351451  0.89154744  1
  N  N11  1  0.89965545  0.76283074  0.09714882  1
  H  H12  1  0.49122507  0.39027292  0.49944157  1
  H  H13  1  0.67018303  0.28889849  0.67860539  1
  H  H14  1  0.62028978  0.14549066  0.59837644  1
  H  H15  1  0.31946752  0.28832973  0.31453161  1
  H  H16  1  0.37732837  0.14433092  0.38607998  1
  H  H17  1  0.99125270  0.10972237  0.00053281  1
  H  H18  1  0.17026445  0.21109471  0.82143403  1
  H  H19  1  0.12039558  0.35449874  0.90170514  1
  H  H20  1  0.81948892  0.21166452  0.18545012  1
  H  H21  1  0.87738884  0.35566402  0.11395125  1
  H  H22  1  0.51001773  0.89027449  0.50080114  1
  H  H23  1  0.68852129  0.78824659  0.67816767  1
  H  H24  1  0.60750076  0.64486695  0.62906162  1
  H  H25  1  0.32265799  0.78901690  0.32935021  1
  H  H26  1  0.39340671  0.64504449  0.38780827  1
  H  H27  1  0.00997704  0.60973235  0.99916998  1
  H  H28  1  0.18850145  0.71177293  0.82184545  1
  H  H29  1  0.10745650  0.85514861  0.87095943  1
  H  H30  1  0.82257432  0.71097687  0.17059545  1
  H  H31  1  0.89331052  0.85495460  0.11216798  1
  Sr  Sr32  1  0.49848013  0.99998249  0.99757179  1
  Sr  Sr33  1  0.99848220  0.50002882  0.50244331  1
  Ru  Ru34  1  0.00004309  0.00000091  0.49822006  1
  Ru  Ru35  1  0.50003891  0.50000772  0.00178542  1
  Br  Br36  1  0.49853786  0.26750119  0.99688437  1
  Br  Br37  1  0.19598631  0.98909914  0.23831087  1
  Br  Br38  1  0.74058561  0.01018028  0.30119052  1
  Br  Br39  1  0.99849073  0.23250871  0.50316523  1
  Br  Br40  1  0.26004965  0.01143432  0.69355226  1
  Br  Br41  1  0.80402689  0.98918579  0.75832358  1
  Br  Br42  1  0.50122878  0.73252221  0.00480912  1
  Br  Br43  1  0.69598193  0.51090251  0.26169542  1
  Br  Br44  1  0.24057365  0.48983763  0.19880833  1
  Br  Br45  1  0.00127483  0.76748706  0.49515694  1
  Br  Br46  1  0.30402987  0.51082208  0.74167898  1
  Br  Br47  1  0.76004072  0.48855802  0.80645251  1
