# generated using pymatgen
data_YTlH10C2(Br3N2)2
_symmetry_space_group_name_H-M   'P 1'
_cell_length_a   8.30669444
_cell_length_b   11.72627369
_cell_length_c   8.29681064
_cell_angle_alpha   89.90948818
_cell_angle_beta   90.00020847
_cell_angle_gamma   90.00094667
_symmetry_Int_Tables_number   1
_chemical_formula_structural   YTlH10C2(Br3N2)2
_chemical_formula_sum   'Y2 Tl2 H20 C4 Br12 N8'
_cell_volume   808.16287840
_cell_formula_units_Z   2
loop_
 _symmetry_equiv_pos_site_id
 _symmetry_equiv_pos_as_xyz
  1  'x, y, z'
loop_
 _atom_site_type_symbol
 _atom_site_label
 _atom_site_symmetry_multiplicity
 _atom_site_fract_x
 _atom_site_fract_y
 _atom_site_fract_z
 _atom_site_occupancy
  C  C0  1  0.49313337  0.29051772  0.49596839  1
  C  C1  1  0.99319334  0.20947316  0.00404985  1
  C  C2  1  0.50712730  0.79055775  0.50358901  1
  C  C3  1  0.00705891  0.70944539  0.99638943  1
  N  N4  1  0.59557693  0.23935095  0.59235083  1
  N  N5  1  0.39454987  0.23915715  0.39612516  1
  N  N6  1  0.09566998  0.26064565  0.90770420  1
  N  N7  1  0.89458918  0.26082775  0.10387604  1
  N  N8  1  0.60392117  0.73909330  0.60534341  1
  N  N9  1  0.40635633  0.73948402  0.40563106  1
  N  N10  1  0.10387290  0.76091649  0.89466556  1
  N  N11  1  0.90624994  0.76051337  0.09432149  1
  H  H12  1  0.48936667  0.38339415  0.49943264  1
  H  H13  1  0.66849890  0.28702473  0.66457649  1
  H  H14  1  0.60413998  0.15280063  0.60090518  1
  H  H15  1  0.31798760  0.28716121  0.32773506  1
  H  H16  1  0.39206775  0.15281513  0.38125197  1
  H  H17  1  0.98941700  0.11659758  0.00056652  1
  H  H18  1  0.16861525  0.21297347  0.83550145  1
  H  H19  1  0.10426490  0.34719491  0.89918678  1
  H  H20  1  0.81800429  0.21282073  0.17223922  1
  H  H21  1  0.89211664  0.34716857  0.11876476  1
  H  H22  1  0.51092901  0.88343805  0.49995115  1
  H  H23  1  0.67631951  0.78706571  0.67791550  1
  H  H24  1  0.61273594  0.65252480  0.61404472  1
  H  H25  1  0.33719820  0.78719491  0.32957915  1
  H  H26  1  0.39109213  0.65318288  0.40401322  1
  H  H27  1  0.01086668  0.61656740  1.00002698  1
  H  H28  1  0.17629853  0.71295416  0.82211011  1
  H  H29  1  0.11268090  0.84748783  0.88597058  1
  H  H30  1  0.83706747  0.71279351  0.17034112  1
  H  H31  1  0.89096317  0.84680926  0.09592496  1
  Y  Y32  1  0.49925048  0.99994587  0.99851857  1
  Y  Y33  1  0.99924891  0.50007206  0.50149567  1
  Tl  Tl34  1  0.00008529  0.00010174  0.49797543  1
  Tl  Tl35  1  0.50007964  0.49991892  0.00203700  1
  Br  Br36  1  0.49842748  0.23369431  0.99279580  1
  Br  Br37  1  0.21835196  0.98556808  0.18306252  1
  Br  Br38  1  0.68296781  0.02001790  0.28091479  1
  Br  Br39  1  0.99839630  0.26632333  0.50724417  1
  Br  Br40  1  0.31530702  0.01287982  0.71683561  1
  Br  Br41  1  0.78204384  0.98153985  0.81515623  1
  Br  Br42  1  0.50263728  0.76626046  0.00668078  1
  Br  Br43  1  0.71833175  0.51442592  0.31696302  1
  Br  Br44  1  0.18294821  0.47998732  0.21908115  1
  Br  Br45  1  0.00267445  0.73375634  0.49326874  1
  Br  Br46  1  0.28204663  0.51848869  0.68485023  1
  Br  Br47  1  0.81529255  0.48713003  0.78317307  1
