# generated using pymatgen
data_YH10AuC2(Br3N2)2
_symmetry_space_group_name_H-M   'P 1'
_cell_length_a   8.41479388
_cell_length_b   10.55445900
_cell_length_c   8.40453032
_cell_angle_alpha   89.80895071
_cell_angle_beta   90.00032034
_cell_angle_gamma   90.00118433
_symmetry_Int_Tables_number   1
_chemical_formula_structural   YH10AuC2(Br3N2)2
_chemical_formula_sum   'Y2 H20 Au2 C4 Br12 N8'
_cell_volume   746.43241879
_cell_formula_units_Z   2
loop_
 _symmetry_equiv_pos_site_id
 _symmetry_equiv_pos_as_xyz
  1  'x, y, z'
loop_
 _atom_site_type_symbol
 _atom_site_label
 _atom_site_symmetry_multiplicity
 _atom_site_fract_x
 _atom_site_fract_y
 _atom_site_fract_z
 _atom_site_occupancy
  C  C0  1  0.49525218  0.29164161  0.49587994  1
  C  C1  1  0.99529227  0.20835826  0.00412926  1
  C  C2  1  0.50531134  0.79164455  0.50359685  1
  C  C3  1  0.00526611  0.70835696  0.99639853  1
  N  N4  1  0.59780299  0.23650031  0.59093152  1
  N  N5  1  0.39637628  0.23507681  0.39882114  1
  N  N6  1  0.09786625  0.26350595  0.90910089  1
  N  N7  1  0.89641610  0.26492092  0.10118999  1
  N  N8  1  0.59981745  0.73501471  0.60532886  1
  N  N9  1  0.40669064  0.73658822  0.40484701  1
  N  N10  1  0.09977522  0.76499668  0.89467390  1
  N  N11  1  0.90662406  0.76340219  0.09513078  1
  H  H12  1  0.49152763  0.39475597  0.49793882  1
  H  H13  1  0.66775178  0.29207042  0.66188103  1
  H  H14  1  0.61198192  0.14075658  0.60014091  1
  H  H15  1  0.32280369  0.29025218  0.33054610  1
  H  H16  1  0.38779413  0.13919641  0.38593420  1
  H  H17  1  0.99154699  0.10524609  0.00204547  1
  H  H18  1  0.16780847  0.20793701  0.83814665  1
  H  H19  1  0.11206932  0.35924800  0.89991992  1
  H  H20  1  0.82282734  0.20974192  0.16944663  1
  H  H21  1  0.88785350  0.36079875  0.11409617  1
  H  H22  1  0.50956228  0.89474591  0.50053674  1
  H  H23  1  0.67131498  0.79006307  0.67546020  1
  H  H24  1  0.60755123  0.63915019  0.61961127  1
  H  H25  1  0.33854004  0.79231143  0.33186896  1
  H  H26  1  0.39201241  0.64086774  0.39667017  1
  H  H27  1  0.00953560  0.60525621  0.99946442  1
  H  H28  1  0.17129178  0.70995748  0.82455572  1
  H  H29  1  0.10749479  0.86086182  0.88039256  1
  H  H30  1  0.83847511  0.70767133  0.16810492  1
  H  H31  1  0.89192488  0.85912131  0.10330046  1
  Y  Y32  1  0.49878344  0.99997629  0.99783559  1
  Y  Y33  1  0.99878597  0.50003286  0.50216953  1
  Au  Au34  1  0.00004123  0.00005246  0.49757358  1
  Au  Au35  1  0.50004407  0.49995632  0.00242188  1
  Br  Br36  1  0.49825852  0.26508498  0.99629740  1
  Br  Br37  1  0.23489514  0.98413713  0.19411155  1
  Br  Br38  1  0.69586031  0.01380046  0.26220764  1
  Br  Br39  1  0.99821125  0.23492265  0.50374488  1
  Br  Br40  1  0.30411529  0.01565147  0.73264707  1
  Br  Br41  1  0.76405656  0.98653286  0.80208108  1
  Br  Br42  1  0.50192302  0.73489996  0.00325501  1
  Br  Br43  1  0.73489245  0.51585682  0.30589060  1
  Br  Br44  1  0.19585377  0.48619974  0.23779001  1
  Br  Br45  1  0.00197502  0.76510821  0.49671255  1
  Br  Br46  1  0.26405549  0.51348070  0.69792531  1
  Br  Br47  1  0.80410908  0.48435308  0.76735109  1
