# generated using pymatgen
data_YInH10C2(Br3N2)2
_symmetry_space_group_name_H-M   'P 1'
_cell_length_a   8.27388472
_cell_length_b   11.63385877
_cell_length_c   8.26309904
_cell_angle_alpha   89.93254526
_cell_angle_beta   90.00000655
_cell_angle_gamma   90.00033420
_symmetry_Int_Tables_number   1
_chemical_formula_structural   YInH10C2(Br3N2)2
_chemical_formula_sum   'Y2 In2 H20 C4 Br12 N8'
_cell_volume   795.38227763
_cell_formula_units_Z   2
loop_
 _symmetry_equiv_pos_site_id
 _symmetry_equiv_pos_as_xyz
  1  'x, y, z'
loop_
 _atom_site_type_symbol
 _atom_site_label
 _atom_site_symmetry_multiplicity
 _atom_site_fract_x
 _atom_site_fract_y
 _atom_site_fract_z
 _atom_site_occupancy
  C  C0  1  0.49320201  0.29073367  0.49611193  1
  C  C1  1  0.99325949  0.20925514  0.00390863  1
  C  C2  1  0.50695065  0.79075476  0.50362312  1
  C  C3  1  0.00688421  0.70925197  0.99635023  1
  N  N4  1  0.59589353  0.23930822  0.59319089  1
  N  N5  1  0.39444125  0.23911349  0.39551960  1
  N  N6  1  0.09598542  0.26068235  0.90686876  1
  N  N7  1  0.89447819  0.26087208  0.10448511  1
  N  N8  1  0.60450536  0.73909156  0.60552752  1
  N  N9  1  0.40548110  0.73936262  0.40541422  1
  N  N10  1  0.10446298  0.76092512  0.89447712  1
  N  N11  1  0.90538064  0.76063414  0.09453229  1
  H  H12  1  0.48935609  0.38438701  0.49969887  1
  H  H13  1  0.66757740  0.28760240  0.66710378  1
  H  H14  1  0.60670806  0.15212025  0.60007549  1
  H  H15  1  0.31921224  0.28783428  0.32536357  1
  H  H16  1  0.38987876  0.15200306  0.38188417  1
  H  H17  1  0.98939971  0.11560230  0.00030132  1
  H  H18  1  0.16769195  0.21238847  0.83297662  1
  H  H19  1  0.10683575  0.34786953  0.90002477  1
  H  H20  1  0.81922250  0.21214959  0.17461144  1
  H  H21  1  0.88992699  0.34798152  0.11813569  1
  H  H22  1  0.51071705  0.88441198  0.49997258  1
  H  H23  1  0.67856432  0.78773807  0.67681164  1
  H  H24  1  0.61193876  0.65188163  0.61647373  1
  H  H25  1  0.33453346  0.78773579  0.33070351  1
  H  H26  1  0.39160232  0.65228586  0.40179675  1
  H  H27  1  0.01065736  0.61559469  0.99999207  1
  H  H28  1  0.17854806  0.71228679  0.82320979  1
  H  H29  1  0.11189200  0.84813615  0.88354397  1
  H  H30  1  0.83440811  0.71225385  0.16921035  1
  H  H31  1  0.89147608  0.84770924  0.09813981  1
  Y  Y32  1  0.49941527  0.99994554  0.99843377  1
  Y  Y33  1  0.99941312  0.50007229  0.50158416  1
  In  In34  1  0.00018892  0.00010170  0.49791473  1
  In  In35  1  0.50018252  0.49991943  0.00209807  1
  Br  Br36  1  0.49832193  0.23579723  0.99333322  1
  Br  Br37  1  0.22006409  0.98413207  0.18829782  1
  Br  Br38  1  0.68763428  0.02078995  0.27973906  1
  Br  Br39  1  0.99829075  0.26422090  0.50671512  1
  Br  Br40  1  0.31018614  0.01498620  0.71832190  1
  Br  Br41  1  0.78114296  0.98011560  0.81068994  1
  Br  Br42  1  0.50254670  0.76415951  0.00639180  1
  Br  Br43  1  0.72004444  0.51585996  0.31172807  1
  Br  Br44  1  0.18761163  0.47921731  0.22025878  1
  Br  Br45  1  0.00258328  0.73585655  0.49355208  1
  Br  Br46  1  0.28114880  0.51991171  0.68931473  1
  Br  Br47  1  0.81017272  0.48501947  0.78169215  1
