# generated using pymatgen
data_YAgH10C2(Br3N2)2
_symmetry_space_group_name_H-M   'P 1'
_cell_length_a   8.16274978
_cell_length_b   10.93723850
_cell_length_c   8.15437547
_cell_angle_alpha   89.87360902
_cell_angle_beta   89.99958305
_cell_angle_gamma   90.00060510
_symmetry_Int_Tables_number   1
_chemical_formula_structural   YAgH10C2(Br3N2)2
_chemical_formula_sum   'Y2 Ag2 H20 C4 Br12 N8'
_cell_volume   728.00408184
_cell_formula_units_Z   2
loop_
 _symmetry_equiv_pos_site_id
 _symmetry_equiv_pos_as_xyz
  1  'x, y, z'
loop_
 _atom_site_type_symbol
 _atom_site_label
 _atom_site_symmetry_multiplicity
 _atom_site_fract_x
 _atom_site_fract_y
 _atom_site_fract_z
 _atom_site_occupancy
  C  C0  1  0.49438498  0.29128204  0.49606722  1
  C  C1  1  0.99443547  0.20871423  0.00393665  1
  C  C2  1  0.50587713  0.79131511  0.50346574  1
  C  C3  1  0.00582555  0.70868677  0.99653258  1
  N  N4  1  0.59857184  0.23732512  0.59464344  1
  N  N5  1  0.39410339  0.23609319  0.39516128  1
  N  N6  1  0.09864505  0.26267795  0.90538800  1
  N  N7  1  0.89414754  0.26389796  0.10484125  1
  N  N8  1  0.60405562  0.73614869  0.60679257  1
  N  N9  1  0.40362202  0.73734158  0.40324633  1
  N  N10  1  0.10401792  0.76386344  0.89321413  1
  N  N11  1  0.90354924  0.76265106  0.09672611  1
  H  H12  1  0.49053786  0.39075665  0.49840252  1
  H  H13  1  0.67046676  0.28986136  0.66901135  1
  H  H14  1  0.61228551  0.14480474  0.60219524  1
  H  H15  1  0.31858725  0.28833397  0.32362880  1
  H  H16  1  0.38609555  0.14344494  0.38337645  1
  H  H17  1  0.99057055  0.10924215  0.00158055  1
  H  H18  1  0.17055033  0.21014358  0.83101925  1
  H  H19  1  0.11238665  0.35520099  0.89786560  1
  H  H20  1  0.81861888  0.21165495  0.17635048  1
  H  H21  1  0.88615609  0.35654082  0.11664342  1
  H  H22  1  0.50997104  0.89078127  0.50040329  1
  H  H23  1  0.67893536  0.78834154  0.67872325  1
  H  H24  1  0.61069766  0.64354048  0.62049280  1
  H  H25  1  0.33208040  0.78994059  0.32828659  1
  H  H26  1  0.39055564  0.64480278  0.39558992  1
  H  H27  1  0.00994199  0.60922232  0.99959306  1
  H  H28  1  0.17891024  0.71167978  0.82130190  1
  H  H29  1  0.11063887  0.85646606  0.87952025  1
  H  H30  1  0.83199364  0.71004402  0.17168110  1
  H  H31  1  0.89045175  0.85519362  0.10437793  1
  Y  Y32  1  0.49903263  0.99997538  0.99777683  1
  Y  Y33  1  0.99903455  0.50003649  0.50223458  1
  Ag  Ag34  1  0.00051029  0.00005873  0.49748049  1
  Ag  Ag35  1  0.50050815  0.49995426  0.00252984  1
  Br  Br36  1  0.49850101  0.25245347  0.99601628  1
  Br  Br37  1  0.22511252  0.98637542  0.20583992  1
  Br  Br38  1  0.70773197  0.01336737  0.27224426  1
  Br  Br39  1  0.99846803  0.24755761  0.50402126  1
  Br  Br40  1  0.29227822  0.01324279  0.72287794  1
  Br  Br41  1  0.77425872  0.98705730  0.79020463  1
  Br  Br42  1  0.50176237  0.74753103  0.00346065  1
  Br  Br43  1  0.72510814  0.51362457  0.29416845  1
  Br  Br44  1  0.20772291  0.48663269  0.22775364  1
  Br  Br45  1  0.00179614  0.75247997  0.49650756  1
  Br  Br46  1  0.27425840  0.51295441  0.70980510  1
  Br  Br47  1  0.79226753  0.48676773  0.77712427  1
