# generated using pymatgen
data_ZrHgH10C2(Br3N2)2
_symmetry_space_group_name_H-M   'P 1'
_cell_length_a   8.27685625
_cell_length_b   11.69496682
_cell_length_c   8.26654643
_cell_angle_alpha   89.81471356
_cell_angle_beta   89.99996210
_cell_angle_gamma   90.00199574
_symmetry_Int_Tables_number   1
_chemical_formula_structural   ZrHgH10C2(Br3N2)2
_chemical_formula_sum   'Zr2 Hg2 H20 C4 Br12 N8'
_cell_volume   800.17733296
_cell_formula_units_Z   2
loop_
 _symmetry_equiv_pos_site_id
 _symmetry_equiv_pos_as_xyz
  1  'x, y, z'
loop_
 _atom_site_type_symbol
 _atom_site_label
 _atom_site_symmetry_multiplicity
 _atom_site_fract_x
 _atom_site_fract_y
 _atom_site_fract_z
 _atom_site_occupancy
  C  C0  1  0.49346578  0.29008311  0.49586394  1
  C  C1  1  0.99352107  0.20990644  0.00415674  1
  C  C2  1  0.50689265  0.79012980  0.50355974  1
  C  C3  1  0.00682867  0.70987782  0.99641618  1
  N  N4  1  0.59674766  0.23916469  0.59272922  1
  N  N5  1  0.39415550  0.23901666  0.39565022  1
  N  N6  1  0.09683885  0.26083104  0.90732696  1
  N  N7  1  0.89419311  0.26096908  0.10435297  1
  N  N8  1  0.60417917  0.73893789  0.60610586  1
  N  N9  1  0.40567466  0.73932043  0.40491592  1
  N  N10  1  0.10413586  0.76107816  0.89389941  1
  N  N11  1  0.90557484  0.76067367  0.09503269  1
  H  H12  1  0.48951355  0.38324689  0.49930397  1
  H  H13  1  0.66789026  0.28787526  0.66598901  1
  H  H14  1  0.60823563  0.15248150  0.60118741  1
  H  H15  1  0.31908323  0.28817054  0.32632511  1
  H  H16  1  0.38887651  0.15242855  0.38118693  1
  H  H17  1  0.98955217  0.11674471  0.00069819  1
  H  H18  1  0.16799935  0.21212062  0.83408832  1
  H  H19  1  0.10836213  0.34751280  0.89890686  1
  H  H20  1  0.81909770  0.21181176  0.17365394  1
  H  H21  1  0.88893120  0.34755466  0.11883358  1
  H  H22  1  0.51076751  0.88330188  0.49975283  1
  H  H23  1  0.67742173  0.78794303  0.67706433  1
  H  H24  1  0.61264189  0.65222836  0.61792071  1
  H  H25  1  0.33549096  0.78819336  0.33045626  1
  H  H26  1  0.39063801  0.65276723  0.40058051  1
  H  H27  1  0.01071267  0.61670404  0.00022059  1
  H  H28  1  0.17740426  0.71208390  0.82295652  1
  H  H29  1  0.11259335  0.84779039  0.88208881  1
  H  H30  1  0.83536867  0.71179212  0.16946294  1
  H  H31  1  0.89051420  0.84722620  0.09935369  1
  Zr  Zr32  1  0.49888660  0.99996361  0.99869069  1
  Zr  Zr33  1  0.99888396  0.50005072  0.50132590  1
  Hg  Hg34  1  0.99900722  0.00008409  0.49825148  1
  Hg  Hg35  1  0.49899860  0.49993495  0.00176958  1
  Br  Br36  1  0.49920488  0.22195657  0.99355172  1
  Br  Br37  1  0.23287491  0.98597657  0.17556137  1
  Br  Br38  1  0.67549862  0.01808533  0.26611257  1
  Br  Br39  1  0.99917605  0.27805890  0.50648690  1
  Br  Br40  1  0.32322249  0.01223970  0.73151314  1
  Br  Br41  1  0.76695254  0.98373998  0.82286043  1
  Br  Br42  1  0.50273683  0.77801922  0.00603324  1
  Br  Br43  1  0.73285683  0.51401673  0.32446590  1
  Br  Br44  1  0.17547529  0.48191363  0.23388609  1
  Br  Br45  1  0.00277332  0.72199293  0.49391076  1
  Br  Br46  1  0.26695375  0.51628748  0.67714569  1
  Br  Br47  1  0.82321462  0.48777596  0.76849893  1
