# generated using pymatgen
data_ZrH10PtC2(Br3N2)2
_symmetry_space_group_name_H-M   'P 1'
_cell_length_a   8.42149842
_cell_length_b   10.02875203
_cell_length_c   8.41297673
_cell_angle_alpha   89.68394997
_cell_angle_beta   90.00022836
_cell_angle_gamma   90.00209201
_symmetry_Int_Tables_number   1
_chemical_formula_structural   ZrH10PtC2(Br3N2)2
_chemical_formula_sum   'Zr2 H20 Pt2 C4 Br12 N8'
_cell_volume   710.52496984
_cell_formula_units_Z   2
loop_
 _symmetry_equiv_pos_site_id
 _symmetry_equiv_pos_as_xyz
  1  'x, y, z'
loop_
 _atom_site_type_symbol
 _atom_site_label
 _atom_site_symmetry_multiplicity
 _atom_site_fract_x
 _atom_site_fract_y
 _atom_site_fract_z
 _atom_site_occupancy
  C  C0  1  0.49617296  0.29331062  0.49575398  1
  C  C1  1  0.99620445  0.20669146  0.00425733  1
  C  C2  1  0.50462134  0.79326208  0.50340127  1
  C  C3  1  0.00459208  0.70674317  0.99658896  1
  N  N4  1  0.60051539  0.23592294  0.58914277  1
  N  N5  1  0.39588799  0.23302697  0.40139808  1
  N  N6  1  0.10056166  0.26408894  0.91088182  1
  N  N7  1  0.89592854  0.26697065  0.09862503  1
  N  N8  1  0.59656217  0.73314923  0.60681807  1
  N  N9  1  0.40776107  0.73573474  0.40308318  1
  N  N10  1  0.09651771  0.76686442  0.89316783  1
  N  N11  1  0.90771553  0.76425409  0.09689108  1
  H  H12  1  0.49199439  0.40166405  0.49686760  1
  H  H13  1  0.67168850  0.29432354  0.65877982  1
  H  H14  1  0.61564983  0.13532159  0.59797606  1
  H  H15  1  0.32091121  0.29001561  0.33330558  1
  H  H16  1  0.38775957  0.13213076  0.38993887  1
  H  H17  1  0.99200287  0.09833961  0.00311859  1
  H  H18  1  0.17172559  0.20569060  0.84123808  1
  H  H19  1  0.11572585  0.36468776  0.90208269  1
  H  H20  1  0.82094158  0.20997775  0.16670411  1
  H  H21  1  0.88783094  0.36786464  0.11011083  1
  H  H22  1  0.50980348  0.90157297  0.50012593  1
  H  H23  1  0.66760520  0.79016490  0.67823179  1
  H  H24  1  0.60188606  0.63236990  0.62223396  1
  H  H25  1  0.34062647  0.79414375  0.32876967  1
  H  H26  1  0.39275874  0.63514002  0.39524184  1
  H  H27  1  0.00980689  0.59843289  0.99988380  1
  H  H28  1  0.16757921  0.70986235  0.82176516  1
  H  H29  1  0.10180748  0.86764488  0.87772982  1
  H  H30  1  0.84059061  0.70583734  0.17121098  1
  H  H31  1  0.89267742  0.86484759  0.10471361  1
  Zr  Zr32  1  0.49868536  0.00003857  0.99768753  1
  Zr  Zr33  1  0.99869560  0.49996150  0.50232754  1
  Pt  Pt34  1  0.99850026  0.99992896  0.50364477  1
  Pt  Pt35  1  0.49847245  0.50007073  0.99638952  1
  Br  Br36  1  0.49910614  0.26153607  0.99900152  1
  Br  Br37  1  0.24272526  0.98432855  0.18253306  1
  Br  Br38  1  0.68503827  0.01283141  0.25400757  1
  Br  Br39  1  0.99907374  0.23846449  0.50103659  1
  Br  Br40  1  0.31659790  0.01594731  0.73995577  1
  Br  Br41  1  0.75641289  0.98710361  0.81372631  1
  Br  Br42  1  0.50074406  0.73851915  0.00139979  1
  Br  Br43  1  0.74273160  0.51565563  0.31747168  1
  Br  Br44  1  0.18503334  0.48716656  0.24599536  1
  Br  Br45  1  0.00077041  0.76148177  0.49856293  1
  Br  Br46  1  0.25642251  0.51291583  0.68627738  1
  Br  Br47  1  0.81659677  0.48406106  0.76004923  1
