# generated using pymatgen
data_ZrCdH10C2(Br3N2)2
_symmetry_space_group_name_H-M   'P 1'
_cell_length_a   8.19303046
_cell_length_b   11.61453628
_cell_length_c   8.29760551
_cell_angle_alpha   89.54845772
_cell_angle_beta   89.99963428
_cell_angle_gamma   90.00276973
_symmetry_Int_Tables_number   1
_chemical_formula_structural   ZrCdH10C2(Br3N2)2
_chemical_formula_sum   'Zr2 Cd2 H20 C4 Br12 N8'
_cell_volume   789.56109539
_cell_formula_units_Z   2
loop_
 _symmetry_equiv_pos_site_id
 _symmetry_equiv_pos_as_xyz
  1  'x, y, z'
loop_
 _atom_site_type_symbol
 _atom_site_label
 _atom_site_symmetry_multiplicity
 _atom_site_fract_x
 _atom_site_fract_y
 _atom_site_fract_z
 _atom_site_occupancy
  C  C0  1  0.49553107  0.28688050  0.49687481  1
  C  C1  1  0.99557567  0.21314024  0.00311551  1
  C  C2  1  0.50411961  0.78725250  0.50247401  1
  C  C3  1  0.00412734  0.71272777  0.99752651  1
  N  N4  1  0.59872773  0.23672278  0.59597335  1
  N  N5  1  0.39854583  0.23422801  0.39546544  1
  N  N6  1  0.09881593  0.26329398  0.90409643  1
  N  N7  1  0.89860315  0.26577480  0.10455899  1
  N  N8  1  0.59814468  0.73432459  0.60744961  1
  N  N9  1  0.40500396  0.73730775  0.40042516  1
  N  N10  1  0.09811797  0.76566633  0.89252968  1
  N  N11  1  0.90499772  0.76266276  0.09957289  1
  H  H12  1  0.48964846  0.38066541  0.49917074  1
  H  H13  1  0.66905642  0.28665186  0.66893218  1
  H  H14  1  0.61136220  0.14954497  0.60646431  1
  H  H15  1  0.32250884  0.28261896  0.32498738  1
  H  H16  1  0.39608337  0.14701368  0.38122294  1
  H  H17  1  0.98960090  0.11935549  0.00074302  1
  H  H18  1  0.16913628  0.21337921  0.83110342  1
  H  H19  1  0.11154308  0.35048343  0.89368039  1
  H  H20  1  0.82250867  0.21738463  0.17497603  1
  H  H21  1  0.89620942  0.35298846  0.11887309  1
  H  H22  1  0.50908511  0.88109005  0.49974656  1
  H  H23  1  0.67001401  0.78242165  0.68136993  1
  H  H24  1  0.60549148  0.64684364  0.61826334  1
  H  H25  1  0.33751100  0.78731980  0.32385277  1
  H  H26  1  0.38879026  0.65022818  0.39498015  1
  H  H27  1  0.00913399  0.61889486  0.00029285  1
  H  H28  1  0.16998719  0.71757761  0.81859969  1
  H  H29  1  0.10540500  0.85314866  0.88166904  1
  H  H30  1  0.83752745  0.71264074  0.17616106  1
  H  H31  1  0.88873665  0.84973765  0.10498419  1
  Zr  Zr32  1  0.49883311  0.99870753  0.99694128  1
  Zr  Zr33  1  0.99871314  0.50130014  0.50311563  1
  Cd  Cd34  1  0.00037490  0.00161539  0.49664913  1
  Cd  Cd35  1  0.50004124  0.49840149  0.00332201  1
  Br  Br36  1  0.50068741  0.22310708  0.99536190  1
  Br  Br37  1  0.23095510  0.98504640  0.17668731  1
  Br  Br38  1  0.68231535  0.01344019  0.26196816  1
  Br  Br39  1  0.00049941  0.27690534  0.50470283  1
  Br  Br40  1  0.31862638  0.01308912  0.73111744  1
  Br  Br41  1  0.76749510  0.98449920  0.81643203  1
  Br  Br42  1  0.50143107  0.77440403  0.00312418  1
  Br  Br43  1  0.73092446  0.51496295  0.32319784  1
  Br  Br44  1  0.18220016  0.48653852  0.23807531  1
  Br  Br45  1  0.00134026  0.72560576  0.49688511  1
  Br  Br46  1  0.26744576  0.51551557  0.68347567  1
  Br  Br47  1  0.81848604  0.48695329  0.76891345  1
