# generated using pymatgen
data_ZrH10PdC2(Br3N2)2
_symmetry_space_group_name_H-M   'P 1'
_cell_length_a   8.19528576
_cell_length_b   10.32231406
_cell_length_c   8.18560270
_cell_angle_alpha   89.70589835
_cell_angle_beta   90.00341079
_cell_angle_gamma   89.99994250
_symmetry_Int_Tables_number   1
_chemical_formula_structural   ZrH10PdC2(Br3N2)2
_chemical_formula_sum   'Zr2 H20 Pd2 C4 Br12 N8'
_cell_volume   692.44631657
_cell_formula_units_Z   2
loop_
 _symmetry_equiv_pos_site_id
 _symmetry_equiv_pos_as_xyz
  1  'x, y, z'
loop_
 _atom_site_type_symbol
 _atom_site_label
 _atom_site_symmetry_multiplicity
 _atom_site_fract_x
 _atom_site_fract_y
 _atom_site_fract_z
 _atom_site_occupancy
  C  C0  1  0.49563636  0.29251633  0.49609954  1
  C  C1  1  0.99568305  0.20749297  0.00389394  1
  C  C2  1  0.50464632  0.79247428  0.50298811  1
  C  C3  1  0.00461516  0.70752972  0.99700034  1
  N  N4  1  0.60133158  0.23623600  0.59308353  1
  N  N5  1  0.39426424  0.23400324  0.39754494  1
  N  N6  1  0.10138651  0.26377640  0.90694762  1
  N  N7  1  0.89430334  0.26599648  0.10245260  1
  N  N8  1  0.60074646  0.73407643  0.60762784  1
  N  N9  1  0.40414507  0.73608836  0.40150212  1
  N  N10  1  0.10069614  0.76593479  0.89237973  1
  N  N11  1  0.90408219  0.76390424  0.09847532  1
  H  H12  1  0.49126059  0.39773653  0.49779078  1
  H  H13  1  0.67330341  0.29268973  0.66589964  1
  H  H14  1  0.61693044  0.13842673  0.60143622  1
  H  H15  1  0.31834596  0.28954706  0.32686179  1
  H  H16  1  0.38575718  0.13596148  0.38568791  1
  H  H17  1  0.99128611  0.10226488  0.00218059  1
  H  H18  1  0.17335541  0.20732846  0.83412951  1
  H  H19  1  0.11701068  0.36158013  0.89862677  1
  H  H20  1  0.81837650  0.21044599  0.17312277  1
  H  H21  1  0.88581622  0.36403635  0.11434111  1
  H  H22  1  0.50925242  0.89770297  0.49983435  1
  H  H23  1  0.67453339  0.78954276  0.67982446  1
  H  H24  1  0.60687772  0.63612840  0.62292367  1
  H  H25  1  0.33389676  0.79264815  0.32631548  1
  H  H26  1  0.38988843  0.63823323  0.39283586  1
  H  H27  1  0.00924562  0.60229689  0.00017220  1
  H  H28  1  0.17451547  0.71047481  0.82018565  1
  H  H29  1  0.10680825  0.86388751  0.87706343  1
  H  H30  1  0.83385431  0.70733480  0.17364296  1
  H  H31  1  0.88979735  0.86174804  0.10711986  1
  Zr  Zr32  1  0.49861473  0.99997402  0.99689780  1
  Zr  Zr33  1  0.99862334  0.50002932  0.50311392  1
  Pd  Pd34  1  0.99903534  0.99989460  0.50772793  1
  Pd  Pd35  1  0.49903482  0.50010783  0.99240001  1
  Br  Br36  1  0.49936811  0.25451392  0.99825953  1
  Br  Br37  1  0.23665455  0.98567737  0.19185012  1
  Br  Br38  1  0.69532483  0.01224960  0.25952721  1
  Br  Br39  1  0.99935838  0.24549122  0.50175245  1
  Br  Br40  1  0.30610048  0.01449206  0.73300001  1
  Br  Br41  1  0.76284060  0.98766781  0.80232031  1
  Br  Br42  1  0.50123086  0.74546047  0.00252086  1
  Br  Br43  1  0.73664157  0.51431301  0.30814909  1
  Br  Br44  1  0.19532033  0.48774867  0.24047773  1
  Br  Br45  1  0.00126209  0.75454398  0.49743669  1
  Br  Br46  1  0.26284770  0.51234462  0.69768938  1
  Br  Br47  1  0.80611298  0.48551034  0.76699110  1
