# generated using pymatgen
data_CaH12PtC2(I3N)2
_symmetry_space_group_name_H-M   'P 1'
_cell_length_a   8.65403734
_cell_length_b   11.46711176
_cell_length_c   8.69555466
_cell_angle_alpha   90.07387700
_cell_angle_beta   75.49259479
_cell_angle_gamma   89.54446584
_symmetry_Int_Tables_number   1
_chemical_formula_structural   CaH12PtC2(I3N)2
_chemical_formula_sum   'Ca2 H24 Pt2 C4 I12 N4'
_cell_volume   835.37399135
_cell_formula_units_Z   2
loop_
 _symmetry_equiv_pos_site_id
 _symmetry_equiv_pos_as_xyz
  1  'x, y, z'
loop_
 _atom_site_type_symbol
 _atom_site_label
 _atom_site_symmetry_multiplicity
 _atom_site_fract_x
 _atom_site_fract_y
 _atom_site_fract_z
 _atom_site_occupancy
  C  C0  1  0.43798002  0.24666525  0.39105409  1
  C  C1  1  0.92710986  0.25053296  0.06279069  1
  C  C2  1  0.56198579  0.75333490  0.60894932  1
  C  C3  1  0.07291981  0.74946446  0.93721882  1
  N  N4  1  0.54744255  0.24833405  0.49784216  1
  N  N5  1  0.05665680  0.25130137  0.91381862  1
  N  N6  1  0.45254282  0.75166798  0.50214030  1
  N  N7  1  0.94335801  0.74871353  0.08617943  1
  H  H8  1  0.51017301  0.24355561  0.26824022  1
  H  H9  1  0.36224101  0.16956544  0.41766388  1
  H  H10  1  0.36580563  0.32656805  0.41091697  1
  H  H11  1  0.61805791  0.17367150  0.48237476  1
  H  H12  1  0.62213342  0.32087460  0.47256320  1
  H  H13  1  0.48795706  0.25316562  0.61733593  1
  H  H14  1  0.98081795  0.25597156  0.16387767  1
  H  H15  1  0.86089530  0.16908768  0.06818617  1
  H  H16  1  0.84904084  0.32597102  0.06227640  1
  H  H17  1  0.13269363  0.17928376  0.90401186  1
  H  H18  1  0.12611182  0.32556121  0.90633600  1
  H  H19  1  0.01107362  0.24978908  0.81354283  1
  H  H20  1  0.48978810  0.75645154  0.73175656  1
  H  H21  1  0.63415230  0.67342444  0.58909260  1
  H  H22  1  0.63773874  0.83042771  0.58233656  1
  H  H23  1  0.38192928  0.82633920  0.51760115  1
  H  H24  1  0.37783638  0.67913647  0.52742442  1
  H  H25  1  0.51202820  0.74683249  0.38265791  1
  H  H26  1  0.01922144  0.74405186  0.83612140  1
  H  H27  1  0.13916828  0.83089394  0.93183869  1
  H  H28  1  0.15095408  0.67400560  0.93773204  1
  H  H29  1  0.86735126  0.82074476  0.09597603  1
  H  H30  1  0.87387628  0.67446832  0.09364732  1
  H  H31  1  0.98892748  0.75020747  0.18646390  1
  Ca  Ca32  1  0.49999003  0.00002911  0.00002720  1
  Ca  Ca33  1  0.00000946  0.49998137  0.50000371  1
  Pt  Pt34  1  -0.00006283  0.99995114  0.50008595  1
  Pt  Pt35  1  0.50004353  0.50003431  -0.00001555  1
  I  I36  1  0.51526329  0.27765864  0.91870180  1
  I  I37  1  0.14918328  0.02356231  0.19715413  1
  I  I38  1  0.66571492  0.98333291  0.26929156  1
  I  I39  1  0.95297802  0.22595406  0.53553096  1
  I  I40  1  0.33429127  0.01668606  0.73074720  1
  I  I41  1  0.85079426  0.97641880  0.80298670  1
  I  I42  1  0.48478183  0.72238814  0.08129386  1
  I  I43  1  0.73128473  0.50584453  0.33729783  1
  I  I44  1  0.19668760  0.47675674  0.14777482  1
  I  I45  1  0.04699418  0.77399451  0.46451136  1
  I  I46  1  0.26873459  0.49414971  0.66271100  1
  I  I47  1  0.80336691  0.52327252  0.85222616  1
