# generated using pymatgen
data_BaH10RuC2(Br3N2)2
_symmetry_space_group_name_H-M   'P 1'
_cell_length_a   8.06937328
_cell_length_b   11.21731479
_cell_length_c   8.05691282
_cell_angle_alpha   89.86235752
_cell_angle_beta   89.99972053
_cell_angle_gamma   90.00017408
_symmetry_Int_Tables_number   1
_chemical_formula_structural   BaH10RuC2(Br3N2)2
_chemical_formula_sum   'Ba2 H20 Ru2 C4 Br12 N8'
_cell_volume   729.28305854
_cell_formula_units_Z   2
loop_
 _symmetry_equiv_pos_site_id
 _symmetry_equiv_pos_as_xyz
  1  'x, y, z'
loop_
 _atom_site_type_symbol
 _atom_site_label
 _atom_site_symmetry_multiplicity
 _atom_site_fract_x
 _atom_site_fract_y
 _atom_site_fract_z
 _atom_site_occupancy
  C  C0  1  0.49392874  0.29096132  0.49595563  1
  C  C1  1  0.99397159  0.20903241  0.00406275  1
  C  C2  1  0.50573558  0.79094657  0.50351833  1
  C  C3  1  0.00568309  0.70905927  0.99646966  1
  N  N4  1  0.59872315  0.23768727  0.59571798  1
  N  N5  1  0.39332273  0.23746967  0.39250854  1
  N  N6  1  0.09879684  0.26230858  0.90432568  1
  N  N7  1  0.89335962  0.26252003  0.10749923  1
  N  N8  1  0.60619427  0.73738195  0.60728806  1
  N  N9  1  0.40167109  0.73771325  0.40315290  1
  N  N10  1  0.10615206  0.76263531  0.89271320  1
  N  N11  1  0.90159325  0.76228184  0.09681234  1
  H  H12  1  0.48973186  0.38800677  0.49951160  1
  H  H13  1  0.67640396  0.28827872  0.66665234  1
  H  H14  1  0.60269628  0.14747235  0.61256119  1
  H  H15  1  0.31179137  0.28818391  0.32566195  1
  H  H16  1  0.39545499  0.14792690  0.36947981  1
  H  H17  1  0.98976403  0.11198765  0.00048368  1
  H  H18  1  0.17648454  0.21171618  0.83340260  1
  H  H19  1  0.10279279  0.35252408  0.88750750  1
  H  H20  1  0.81180283  0.21180558  0.17432050  1
  H  H21  1  0.89549552  0.35206141  0.13054182  1
  H  H22  1  0.50912561  0.88801722  0.50020921  1
  H  H23  1  0.67696767  0.78827050  0.68488288  1
  H  H24  1  0.62395782  0.64719647  0.61086770  1
  H  H25  1  0.33404658  0.78816643  0.32205441  1
  H  H26  1  0.37910886  0.64814961  0.40554225  1
  H  H27  1  0.00909275  0.61198945  0.99977508  1
  H  H28  1  0.17694946  0.71175505  0.81513194  1
  H  H29  1  0.12390219  0.85282136  0.88914462  1
  H  H30  1  0.83396339  0.71182123  0.17790145  1
  H  H31  1  0.87901008  0.85184345  0.09442082  1
  Ru  Ru32  1  0.50003684  0.00001237  0.99825373  1
  Ru  Ru33  1  0.00003348  0.49999759  0.50175040  1
  Ba  Ba34  1  0.00146017  0.00003114  0.49748414  1
  Ba  Ba35  1  0.50146096  0.49998131  0.00251605  1
  Br  Br36  1  0.49863453  0.22625719  0.99433414  1
  Br  Br37  1  0.24343507  0.99040446  0.18636929  1
  Br  Br38  1  0.68859639  0.01071831  0.25522990  1
  Br  Br39  1  0.99859762  0.27375334  0.50570734  1
  Br  Br40  1  0.31112658  0.00859642  0.74185951  1
  Br  Br41  1  0.75616952  0.99042489  0.80846873  1
  Br  Br42  1  0.50172719  0.77377991  0.00370966  1
  Br  Br43  1  0.74342497  0.50959575  0.31364014  1
  Br  Br44  1  0.18859226  0.48928272  0.24477018  1
  Br  Br45  1  0.00176741  0.72623134  0.49624984  1
  Br  Br46  1  0.25616141  0.50958842  0.69154048  1
  Br  Br47  1  0.81112036  0.49141600  0.75814357  1
