# generated using pymatgen
data_TlH10RhC2(Br3N2)2
_symmetry_space_group_name_H-M   'P 1'
_cell_length_a   8.07435376
_cell_length_b   11.09989020
_cell_length_c   8.06133720
_cell_angle_alpha   89.74448824
_cell_angle_beta   89.99963208
_cell_angle_gamma   90.00103065
_symmetry_Int_Tables_number   1
_chemical_formula_structural   TlH10RhC2(Br3N2)2
_chemical_formula_sum   'Tl2 H20 Rh2 C4 Br12 N8'
_cell_volume   722.48564973
_cell_formula_units_Z   2
loop_
 _symmetry_equiv_pos_site_id
 _symmetry_equiv_pos_as_xyz
  1  'x, y, z'
loop_
 _atom_site_type_symbol
 _atom_site_label
 _atom_site_symmetry_multiplicity
 _atom_site_fract_x
 _atom_site_fract_y
 _atom_site_fract_z
 _atom_site_occupancy
  C  C0  1  0.49430851  0.29157277  0.49579966  1
  C  C1  1  0.99436356  0.20842485  0.00421305  1
  C  C2  1  0.50554588  0.79160424  0.50326564  1
  C  C3  1  0.00549009  0.70839814  0.99672744  1
  N  N4  1  0.59938965  0.23790046  0.59526816  1
  N  N5  1  0.39294312  0.23721403  0.39387588  1
  N  N6  1  0.09946028  0.26210235  0.90477287  1
  N  N7  1  0.89298583  0.26277723  0.10613480  1
  N  N8  1  0.60520969  0.73730972  0.60750621  1
  N  N9  1  0.40261075  0.73785282  0.40221285  1
  N  N10  1  0.10515691  0.76270752  0.89249493  1
  N  N11  1  0.90252581  0.76213885  0.09775558  1
  H  H12  1  0.49062501  0.38965652  0.49815696  1
  H  H13  1  0.67605991  0.28913726  0.66678964  1
  H  H14  1  0.60624684  0.14664052  0.60984859  1
  H  H15  1  0.31279000  0.28833766  0.32534940  1
  H  H16  1  0.39140942  0.14626657  0.37530540  1
  H  H17  1  0.99066609  0.11034090  0.00184488  1
  H  H18  1  0.17613860  0.21086714  0.83325660  1
  H  H19  1  0.10633690  0.35336144  0.89020457  1
  H  H20  1  0.81281235  0.21165096  0.17464184  1
  H  H21  1  0.89145764  0.35372474  0.12471176  1
  H  H22  1  0.50870935  0.88970018  0.50019859  1
  H  H23  1  0.67689657  0.78853689  0.68410483  1
  H  H24  1  0.61959152  0.64600472  0.61437053  1
  H  H25  1  0.33367674  0.78901704  0.32246279  1
  H  H26  1  0.38361483  0.64695471  0.40105848  1
  H  H27  1  0.00867715  0.61030376  0.99980461  1
  H  H28  1  0.17686899  0.71148851  0.81591188  1
  H  H29  1  0.11951766  0.85400984  0.88563056  1
  H  H30  1  0.83358974  0.71096622  0.17750446  1
  H  H31  1  0.88350404  0.85303491  0.09890026  1
  Rh  Rh32  1  0.49980490  0.00001196  0.99818191  1
  Rh  Rh33  1  0.99980365  0.49999636  0.50182147  1
  Tl  Tl34  1  0.00141395  0.00004713  0.49732016  1
  Tl  Tl35  1  0.50141639  0.49996338  0.00267763  1
  Br  Br36  1  0.49827255  0.22658835  0.99508528  1
  Br  Br37  1  0.25025146  0.99028544  0.18820478  1
  Br  Br38  1  0.69000678  0.00926683  0.24790179  1
  Br  Br39  1  0.99823508  0.27342037  0.50496141  1
  Br  Br40  1  0.30966433  0.00863775  0.74842945  1
  Br  Br41  1  0.74910478  0.99194257  0.80737083  1
  Br  Br42  1  0.50190600  0.77343999  0.00281420  1
  Br  Br43  1  0.75024432  0.50970821  0.31180381  1
  Br  Br44  1  0.19000487  0.49072907  0.25209770  1
  Br  Br45  1  0.00195365  0.72656887  0.49714246  1
  Br  Br46  1  0.24909774  0.50807598  0.69263460  1
  Br  Br47  1  0.80965946  0.49137721  0.75157358  1
