# generated using pymatgen
data_InH10RhC2(Br3N2)2
_symmetry_space_group_name_H-M   'P 1'
_cell_length_a   8.00411086
_cell_length_b   10.91928731
_cell_length_c   7.99060056
_cell_angle_alpha   89.77140140
_cell_angle_beta   89.99987606
_cell_angle_gamma   90.00171325
_symmetry_Int_Tables_number   1
_chemical_formula_structural   InH10RhC2(Br3N2)2
_chemical_formula_sum   'In2 H20 Rh2 C4 Br12 N8'
_cell_volume   698.36642697
_cell_formula_units_Z   2
loop_
 _symmetry_equiv_pos_site_id
 _symmetry_equiv_pos_as_xyz
  1  'x, y, z'
loop_
 _atom_site_type_symbol
 _atom_site_label
 _atom_site_symmetry_multiplicity
 _atom_site_fract_x
 _atom_site_fract_y
 _atom_site_fract_z
 _atom_site_occupancy
  C  C0  1  0.49445768  0.29174222  0.49599902  1
  C  C1  1  0.99450218  0.20825551  0.00402234  1
  C  C2  1  0.50530521  0.79172801  0.50350646  1
  C  C3  1  0.00525015  0.70827600  0.99647890  1
  N  N4  1  0.60041954  0.23734963  0.59621729  1
  N  N5  1  0.39259676  0.23662881  0.39281177  1
  N  N6  1  0.10049684  0.26265061  0.90382490  1
  N  N7  1  0.89264048  0.26336324  0.10719707  1
  N  N8  1  0.60603958  0.73658276  0.60830502  1
  N  N9  1  0.40123375  0.73735011  0.40183520  1
  N  N10  1  0.10599033  0.76343118  0.89169665  1
  N  N11  1  0.90114740  0.76264258  0.09812960  1
  H  H12  1  0.49032102  0.39134665  0.49883215  1
  H  H13  1  0.67612264  0.28978465  0.66976672  1
  H  H14  1  0.60929167  0.14456385  0.60957076  1
  H  H15  1  0.31294511  0.28896675  0.32278631  1
  H  H16  1  0.38976662  0.14413477  0.37465496  1
  H  H17  1  0.99035493  0.10865087  0.00116363  1
  H  H18  1  0.17620303  0.21021632  0.83028716  1
  H  H19  1  0.10939201  0.35543602  0.89049858  1
  H  H20  1  0.81296188  0.21102433  0.17720167  1
  H  H21  1  0.88981669  0.35585850  0.12536839  1
  H  H22  1  0.50867593  0.89136066  0.50056442  1
  H  H23  1  0.67959892  0.78896233  0.68408826  1
  H  H24  1  0.61954653  0.64376278  0.61665434  1
  H  H25  1  0.33062331  0.78979075  0.32279632  1
  H  H26  1  0.38291528  0.64486752  0.39891500  1
  H  H27  1  0.00863872  0.60864336  0.99942295  1
  H  H28  1  0.17957528  0.71106188  0.81592794  1
  H  H29  1  0.11948788  0.85625326  0.88335344  1
  H  H30  1  0.83053437  0.71019323  0.17715864  1
  H  H31  1  0.88280995  0.85512311  0.10104344  1
  Rh  Rh32  1  0.49971492  0.00001773  0.99826857  1
  Rh  Rh33  1  0.99971269  0.49999111  0.50173706  1
  In  In34  1  0.00191379  0.00002648  0.49738859  1
  In  In35  1  0.50191813  0.49998535  0.00260948  1
  Br  Br36  1  0.49871349  0.23322266  0.99573819  1
  Br  Br37  1  0.24666706  0.98898362  0.19288367  1
  Br  Br38  1  0.69459678  0.00961373  0.25121712  1
  Br  Br39  1  0.99867309  0.26678645  0.50430512  1
  Br  Br40  1  0.30502235  0.01062734  0.74509646  1
  Br  Br41  1  0.75223621  0.99093900  0.80284166  1
  Br  Br42  1  0.50132454  0.76681690  0.00272535  1
  Br  Br43  1  0.74665891  0.51100693  0.30712593  1
  Br  Br44  1  0.19459098  0.49039050  0.24878413  1
  Br  Br45  1  0.00136798  0.73319332  0.49723083  1
  Br  Br46  1  0.25223069  0.50908161  0.69716469  1
  Br  Br47  1  0.80501605  0.48937799  0.75490860  1
