# generated using pymatgen
data_HgH10PdC2(Br3N2)2
_symmetry_space_group_name_H-M   'P 1'
_cell_length_a   8.06206236
_cell_length_b   11.21349908
_cell_length_c   8.04693502
_cell_angle_alpha   89.96407841
_cell_angle_beta   90.00086699
_cell_angle_gamma   89.99921180
_symmetry_Int_Tables_number   1
_chemical_formula_structural   HgH10PdC2(Br3N2)2
_chemical_formula_sum   'Hg2 H20 Pd2 C4 Br12 N8'
_cell_volume   727.47439776
_cell_formula_units_Z   2
loop_
 _symmetry_equiv_pos_site_id
 _symmetry_equiv_pos_as_xyz
  1  'x, y, z'
loop_
 _atom_site_type_symbol
 _atom_site_label
 _atom_site_symmetry_multiplicity
 _atom_site_fract_x
 _atom_site_fract_y
 _atom_site_fract_z
 _atom_site_occupancy
  C  C0  1  0.49597314  0.29144500  0.49551602  1
  C  C1  1  0.99600783  0.20855504  0.00449820  1
  C  C2  1  0.50395198  0.79131017  0.50388942  1
  C  C3  1  0.00391604  0.70868853  0.99609872  1
  N  N4  1  0.60192916  0.23920590  0.59511605  1
  N  N5  1  0.39313839  0.23735689  0.39456927  1
  N  N6  1  0.10198075  0.26079926  0.90490876  1
  N  N7  1  0.89318110  0.26264454  0.10544547  1
  N  N8  1  0.60355703  0.73736808  0.60827361  1
  N  N9  1  0.40153595  0.73885868  0.40087731  1
  N  N10  1  0.10350077  0.76264879  0.89172147  1
  N  N11  1  0.90147477  0.76113576  0.09910623  1
  H  H12  1  0.49283871  0.38861204  0.49667665  1
  H  H13  1  0.67803057  0.29146004  0.66583628  1
  H  H14  1  0.61099485  0.14895327  0.60962594  1
  H  H15  1  0.31414384  0.28845195  0.32529294  1
  H  H16  1  0.38884200  0.14704163  0.37795204  1
  H  H17  1  0.99286636  0.11139016  0.00331410  1
  H  H18  1  0.17807482  0.20854075  0.83418566  1
  H  H19  1  0.11105526  0.35105031  0.89041781  1
  H  H20  1  0.81418050  0.21154809  0.17470644  1
  H  H21  1  0.88889271  0.35295605  0.12207661  1
  H  H22  1  0.50660554  0.88844965  0.50274474  1
  H  H23  1  0.67518391  0.78871204  0.68476468  1
  H  H24  1  0.61733314  0.64693082  0.61568032  1
  H  H25  1  0.33246545  0.79089486  0.32286470  1
  H  H26  1  0.38409049  0.64872553  0.39513319  1
  H  H27  1  0.00659250  0.61155839  0.99725876  1
  H  H28  1  0.17514107  0.71131256  0.81524681  1
  H  H29  1  0.11724984  0.85308149  0.88431575  1
  H  H30  1  0.83241400  0.70908708  0.17712726  1
  H  H31  1  0.88399882  0.85127189  0.10484970  1
  Pd  Pd32  1  0.49974289  0.00002418  0.99819536  1
  Pd  Pd33  1  0.99973957  0.49997719  0.50180896  1
  Hg  Hg34  1  0.00072236  0.99998190  0.49829105  1
  Hg  Hg35  1  0.50072458  0.50002028  0.00169994  1
  Br  Br36  1  0.49954021  0.27952036  0.99661013  1
  Br  Br37  1  0.25600277  0.98660631  0.18621233  1
  Br  Br38  1  0.68790615  0.01091773  0.24233490  1
  Br  Br39  1  0.99950352  0.22048132  0.50342609  1
  Br  Br40  1  0.31193822  0.01354362  0.75434239  1
  Br  Br41  1  0.74317211  0.98920030  0.80955426  1
  Br  Br42  1  0.50042115  0.72055067  0.00389333  1
  Br  Br43  1  0.75599270  0.51338639  0.31378800  1
  Br  Br44  1  0.18790304  0.48909350  0.25767361  1
  Br  Br45  1  0.00046440  0.77945159  0.49606897  1
  Br  Br46  1  0.24316621  0.51081018  0.69045751  1
  Br  Br47  1  0.81193816  0.48645221  0.74565699  1
