# generated using pymatgen
data_HfH10PdC2(Br3N2)2
_symmetry_space_group_name_H-M   'P 1'
_cell_length_a   8.27167202
_cell_length_b   10.21773487
_cell_length_c   8.26157669
_cell_angle_alpha   90.35991577
_cell_angle_beta   90.00009258
_cell_angle_gamma   89.99707664
_symmetry_Int_Tables_number   1
_chemical_formula_structural   HfH10PdC2(Br3N2)2
_chemical_formula_sum   'Hf2 H20 Pd2 C4 Br12 N8'
_cell_volume   698.23610887
_cell_formula_units_Z   2
loop_
 _symmetry_equiv_pos_site_id
 _symmetry_equiv_pos_as_xyz
  1  'x, y, z'
loop_
 _atom_site_type_symbol
 _atom_site_label
 _atom_site_symmetry_multiplicity
 _atom_site_fract_x
 _atom_site_fract_y
 _atom_site_fract_z
 _atom_site_occupancy
  C  C0  1  0.49595858  0.29307244  0.49712652  1
  C  C1  1  0.99598524  0.20692777  0.00287705  1
  C  C2  1  0.50385345  0.79311228  0.50404212  1
  C  C3  1  0.00381296  0.70689607  0.99594839  1
  N  N4  1  0.59474659  0.23612824  0.59835197  1
  N  N5  1  0.40134449  0.23406426  0.39279011  1
  N  N6  1  0.09480733  0.26386672  0.90166976  1
  N  N7  1  0.90138982  0.26593505  0.10721432  1
  N  N8  1  0.60500683  0.73387033  0.60077707  1
  N  N9  1  0.39843913  0.73640521  0.40850876  1
  N  N10  1  0.10496696  0.76613609  0.89922793  1
  N  N11  1  0.89838549  0.76360043  0.09147849  1
  H  H12  1  0.49153272  0.39939999  0.50016089  1
  H  H13  1  0.66382626  0.29323715  0.67348216  1
  H  H14  1  0.60902085  0.13733360  0.60672224  1
  H  H15  1  0.32883560  0.29006328  0.32061231  1
  H  H16  1  0.39505098  0.13515111  0.37770304  1
  H  H17  1  0.99153012  0.10060019  0.99979755  1
  H  H18  1  0.16387533  0.20675383  0.82653425  1
  H  H19  1  0.10911245  0.36265792  0.89334230  1
  H  H20  1  0.82885585  0.20994308  0.17937537  1
  H  H21  1  0.89512258  0.36485091  0.12234035  1
  H  H22  1  0.50812683  0.89944458  0.50275721  1
  H  H23  1  0.68085345  0.78980889  0.67044269  1
  H  H24  1  0.61330597  0.63486760  0.61233578  1
  H  H25  1  0.32652550  0.79353896  0.33709431  1
  H  H26  1  0.38325510  0.63765482  0.39952856  1
  H  H27  1  0.00809243  0.60056127  0.99722531  1
  H  H28  1  0.18082506  0.71020195  0.82956160  1
  H  H29  1  0.11325437  0.86514185  0.88767482  1
  H  H30  1  0.82647301  0.70646566  0.16288232  1
  H  H31  1  0.88318895  0.86235146  0.10046107  1
  Pd  Pd32  1  0.50078165  0.00007694  0.00530330  1
  Pd  Pd33  1  0.00083471  0.49992509  0.49478382  1
  Hf  Hf34  1  0.00090545  1.00000177  0.49725596  1
  Hf  Hf35  1  0.50090263  0.50000114  0.00274197  1
  Br  Br36  1  0.49932552  0.24578590  0.99872964  1
  Br  Br37  1  0.18926112  0.98641556  0.23938808  1
  Br  Br38  1  0.74318639  0.01089945  0.30698001  1
  Br  Br39  1  0.99929653  0.25421591  0.50128973  1
  Br  Br40  1  0.25728706  0.01325301  0.68747912  1
  Br  Br41  1  0.80912978  0.98931413  0.75387790  1
  Br  Br42  1  0.50043339  0.75422286  0.00187421  1
  Br  Br43  1  0.68926418  0.51358704  0.26060370  1
  Br  Br44  1  0.24318680  0.48912475  0.19302090  1
  Br  Br45  1  0.00045879  0.74577986  0.49809356  1
  Br  Br46  1  0.30912424  0.51068834  0.74612013  1
  Br  Br47  1  0.75728083  0.48672823  0.81251612  1
