# generated using pymatgen
data_BaH10PdC2(Br3N2)2
_symmetry_space_group_name_H-M   'P 1'
_cell_length_a   8.39600964
_cell_length_b   11.08456378
_cell_length_c   8.45190849
_cell_angle_alpha   90.01826017
_cell_angle_beta   81.61990384
_cell_angle_gamma   89.96353679
_symmetry_Int_Tables_number   1
_chemical_formula_structural   BaH10PdC2(Br3N2)2
_chemical_formula_sum   'Ba2 H20 Pd2 C4 Br12 N8'
_cell_volume   778.18760849
_cell_formula_units_Z   2
loop_
 _symmetry_equiv_pos_site_id
 _symmetry_equiv_pos_as_xyz
  1  'x, y, z'
loop_
 _atom_site_type_symbol
 _atom_site_label
 _atom_site_symmetry_multiplicity
 _atom_site_fract_x
 _atom_site_fract_y
 _atom_site_fract_z
 _atom_site_occupancy
  C  C0  1  0.49164972  0.29445694  0.49704500  1
  C  C1  1  0.00276834  0.21218664  0.00299574  1
  C  C2  1  0.49764066  0.79337508  0.48941209  1
  C  C3  1  0.99621655  0.71060466  0.00891172  1
  N  N4  1  0.60214169  0.24470104  0.57056114  1
  N  N5  1  0.41918997  0.24053360  0.38857923  1
  N  N6  1  0.11687435  0.25980514  0.89972798  1
  N  N7  1  0.90816654  0.26936161  0.11618538  1
  N  N8  1  0.56640066  0.74016934  0.60018582  1
  N  N9  1  0.39212726  0.74239876  0.40974396  1
  N  N10  1  0.09491736  0.76505381  0.89720181  1
  N  N11  1  0.87985562  0.76083988  0.10786089  1
  H  H12  1  0.45529089  0.38664320  0.53043831  1
  H  H13  1  0.65902064  0.29397050  0.64740034  1
  H  H14  1  0.64038419  0.15825069  0.54610660  1
  H  H15  1  0.32548239  0.28288671  0.34731435  1
  H  H16  1  0.44762855  0.15487076  0.34948993  1
  H  H17  1  0.98354522  0.11515832  0.99344863  1
  H  H18  1  0.18233464  0.20252290  0.81910193  1
  H  H19  1  0.13938669  0.35045435  0.88857296  1
  H  H20  1  0.82589199  0.21865222  0.18940380  1
  H  H21  1  0.91891362  0.35859947  0.14310759  1
  H  H22  1  0.53273173  0.88612191  0.45808064  1
  H  H23  1  0.64121000  0.78783259  0.66192151  1
  H  H24  1  0.53732341  0.65373434  0.63606202  1
  H  H25  1  0.35618695  0.78675298  0.31524063  1
  H  H26  1  0.35160633  0.65635367  0.43128271  1
  H  H27  1  0.01347366  0.61368084  0.02211779  1
  H  H28  1  0.17931083  0.71276072  0.82869056  1
  H  H29  1  0.09746548  0.85604186  0.87644410  1
  H  H30  1  0.81125223  0.70543385  0.18845499  1
  H  H31  1  0.84645595  0.84918186  0.10099444  1
  Pd  Pd32  1  0.50948909  0.98919651  0.98534051  1
  Pd  Pd33  1  0.99987108  0.48844325  0.50925157  1
  Ba  Ba34  1  0.01566472  0.98636829  0.48379479  1
  Ba  Ba35  1  0.51336635  0.48622832  0.02146111  1
  Br  Br36  1  0.52996301  0.21014902  0.97130123  1
  Br  Br37  1  0.25040785  0.00421190  0.16429989  1
  Br  Br38  1  0.72418463  0.02708864  0.29512881  1
  Br  Br39  1  0.01132029  0.26819912  0.51977864  1
  Br  Br40  1  0.27668083  0.01387174  0.70075372  1
  Br  Br41  1  0.77199262  0.97007972  0.81194269  1
  Br  Br42  1  0.48689506  0.76916777  0.00212978  1
  Br  Br43  1  0.70103488  0.51931561  0.30241093  1
  Br  Br44  1  0.17748071  0.48492228  0.24775331  1
  Br  Br45  1  0.98926219  0.70986968  0.50602339  1
  Br  Br46  1  0.30152007  0.52148732  0.74471953  1
  Br  Br47  1  0.82804184  0.48807358  0.77193026  1
