# generated using pymatgen
data_CdH10PdC2(Br3N2)2
_symmetry_space_group_name_H-M   'P 1'
_cell_length_a   7.81943655
_cell_length_b   10.82592624
_cell_length_c   8.30119807
_cell_angle_alpha   89.90690183
_cell_angle_beta   90.00291007
_cell_angle_gamma   89.99882105
_symmetry_Int_Tables_number   1
_chemical_formula_structural   CdH10PdC2(Br3N2)2
_chemical_formula_sum   'Cd2 H20 Pd2 C4 Br12 N8'
_cell_volume   702.71743122
_cell_formula_units_Z   2
loop_
 _symmetry_equiv_pos_site_id
 _symmetry_equiv_pos_as_xyz
  1  'x, y, z'
loop_
 _atom_site_type_symbol
 _atom_site_label
 _atom_site_symmetry_multiplicity
 _atom_site_fract_x
 _atom_site_fract_y
 _atom_site_fract_z
 _atom_site_occupancy
  C  C0  1  0.49683685  0.28790985  0.49783112  1
  C  C1  1  0.99681116  0.21210799  0.00214443  1
  C  C2  1  0.50228515  0.79022278  0.50228355  1
  C  C3  1  0.00235902  0.70978649  0.99782615  1
  N  N4  1  0.59381465  0.23450352  0.60590807  1
  N  N5  1  0.40554155  0.23119014  0.38834525  1
  N  N6  1  0.09380831  0.26556991  0.89415094  1
  N  N7  1  0.90554866  0.26876305  0.11170985  1
  N  N8  1  0.59441577  0.73353116  0.61122300  1
  N  N9  1  0.40571172  0.73671512  0.39416816  1
  N  N10  1  0.09438651  0.76646460  0.88879417  1
  N  N11  1  0.90571583  0.76330517  0.10586174  1
  H  H12  1  0.49119264  0.38842686  0.49910870  1
  H  H13  1  0.66229634  0.28860031  0.68339890  1
  H  H14  1  0.60749292  0.14113757  0.61719712  1
  H  H15  1  0.33222797  0.28293822  0.31193693  1
  H  H16  1  0.40151329  0.13762675  0.37475217  1
  H  H17  1  0.99111961  0.11159486  0.00072323  1
  H  H18  1  0.16222493  0.21152588  0.81655617  1
  H  H19  1  0.10746820  0.35894267  0.88295336  1
  H  H20  1  0.83218944  0.21696465  0.18802009  1
  H  H21  1  0.90148978  0.36231520  0.12541021  1
  H  H22  1  0.50665433  0.89072915  0.50153169  1
  H  H23  1  0.66559172  0.78540818  0.68925963  1
  H  H24  1  0.60388400  0.63980756  0.62003885  1
  H  H25  1  0.33825650  0.79055473  0.31522569  1
  H  H26  1  0.38859123  0.64347021  0.38753844  1
  H  H27  1  0.00691251  0.60928563  0.99875528  1
  H  H28  1  0.16559902  0.71457280  0.81080007  1
  H  H29  1  0.10362034  0.86018048  0.87976480  1
  H  H30  1  0.83832289  0.70947637  0.18484823  1
  H  H31  1  0.88836576  0.85654510  0.11227730  1
  Pd  Pd32  1  0.49984879  0.98640663  0.99976284  1
  Pd  Pd33  1  0.00002685  0.51357418  0.50029381  1
  Cd  Cd34  1  0.00771832  0.00903100  0.49058029  1
  Cd  Cd35  1  0.50674576  0.49090888  0.00828245  1
  Br  Br36  1  0.50026504  0.21497769  0.99685964  1
  Br  Br37  1  0.24585682  0.98315396  0.18509873  1
  Br  Br38  1  0.74878716  0.01691594  0.30736023  1
  Br  Br39  1  0.00028040  0.28501127  0.50327660  1
  Br  Br40  1  0.25282280  0.01739164  0.68941158  1
  Br  Br41  1  0.74970779  0.98281449  0.81219900  1
  Br  Br42  1  0.49887162  0.75696854  0.00179953  1
  Br  Br43  1  0.74620787  0.51681229  0.31495996  1
  Br  Br44  1  0.24887829  0.48305780  0.19278498  1
  Br  Br45  1  0.99880912  0.74301597  0.49845284  1
  Br  Br46  1  0.25002753  0.51719432  0.68796193  1
  Br  Br47  1  0.75291656  0.48265545  0.81067706  1
