# generated using pymatgen
data_AgBiH10C2(Br3N2)2
_symmetry_space_group_name_H-M   'P 1'
_cell_length_a   8.16254030
_cell_length_b   11.10023749
_cell_length_c   8.15374334
_cell_angle_alpha   90.07509593
_cell_angle_beta   90.00030722
_cell_angle_gamma   89.99859255
_symmetry_Int_Tables_number   1
_chemical_formula_structural   AgBiH10C2(Br3N2)2
_chemical_formula_sum   'Ag2 Bi2 H20 C4 Br12 N8'
_cell_volume   738.77854248
_cell_formula_units_Z   2
loop_
 _symmetry_equiv_pos_site_id
 _symmetry_equiv_pos_as_xyz
  1  'x, y, z'
loop_
 _atom_site_type_symbol
 _atom_site_label
 _atom_site_symmetry_multiplicity
 _atom_site_fract_x
 _atom_site_fract_y
 _atom_site_fract_z
 _atom_site_occupancy
  C  C0  1  0.49375416  0.29107537  0.49636771  1
  C  C1  1  0.99380239  0.20890797  0.00364860  1
  C  C2  1  0.50595017  0.79105548  0.50384345  1
  C  C3  1  0.00588123  0.70893825  0.99615301  1
  N  N4  1  0.59666943  0.23768767  0.59582576  1
  N  N5  1  0.39492629  0.23684263  0.39357358  1
  N  N6  1  0.09675892  0.26230370  0.90421529  1
  N  N7  1  0.89497853  0.26313951  0.10642271  1
  N  N8  1  0.60568220  0.73679835  0.60556560  1
  N  N9  1  0.40238202  0.73769660  0.40487066  1
  N  N10  1  0.10565130  0.76321526  0.89442505  1
  N  N11  1  0.90232126  0.76229016  0.09507507  1
  H  H12  1  0.48966370  0.38913224  0.49967823  1
  H  H13  1  0.66925417  0.28919468  0.67002595  1
  H  H14  1  0.60833051  0.14645821  0.60404711  1
  H  H15  1  0.31901484  0.28817632  0.32262147  1
  H  H16  1  0.38977462  0.14563710  0.37885431  1
  H  H17  1  0.98970194  0.11086924  0.00030477  1
  H  H18  1  0.16935111  0.21079681  0.83002352  1
  H  H19  1  0.10844245  0.35353647  0.89603773  1
  H  H20  1  0.81903272  0.21181361  0.17736038  1
  H  H21  1  0.88982693  0.35436259  0.12117587  1
  H  H22  1  0.50978228  0.88914436  0.50113912  1
  H  H23  1  0.68032940  0.78819562  0.67793636  1
  H  H24  1  0.61453272  0.64548706  0.61617048  1
  H  H25  1  0.33129616  0.78913777  0.32932817  1
  H  H26  1  0.38783372  0.64657098  0.39917262  1
  H  H27  1  0.00974228  0.61087009  0.99883231  1
  H  H28  1  0.18030753  0.71183165  0.82207679  1
  H  H29  1  0.11447725  0.85453426  0.88384548  1
  H  H30  1  0.83119828  0.71084218  0.17062608  1
  H  H31  1  0.88772208  0.85343337  0.10079690  1
  Ag  Ag32  1  0.50062675  0.99996513  0.99798737  1
  Ag  Ag33  1  0.00063897  0.50005201  0.50204476  1
  Bi  Bi34  1  0.00108311  0.00004765  0.49782486  1
  Bi  Bi35  1  0.50107809  0.49996777  0.00218584  1
  Br  Br36  1  0.49786034  0.24427324  0.99549221  1
  Br  Br37  1  0.21303708  0.98596375  0.21543407  1
  Br  Br38  1  0.71728053  0.01467777  0.28529943  1
  Br  Br39  1  0.99780589  0.25574142  0.50454928  1
  Br  Br40  1  0.28217361  0.01436687  0.71135047  1
  Br  Br41  1  0.78709345  0.98502934  0.78049131  1
  Br  Br42  1  0.50169511  0.75570199  0.00456043  1
  Br  Br43  1  0.71302786  0.51403896  0.28457729  1
  Br  Br44  1  0.21726163  0.48533574  0.21470187  1
  Br  Br45  1  0.00172624  0.74431316  0.49539027  1
  Br  Br46  1  0.28709987  0.51498298  0.71951762  1
  Br  Br47  1  0.78215820  0.48562963  0.78865757  1
