# generated using pymatgen
data_AgH10AuC2(Br3N2)2
_symmetry_space_group_name_H-M   'P 1'
_cell_length_a   7.72836795
_cell_length_b   10.85358109
_cell_length_c   8.55583063
_cell_angle_alpha   90.14146664
_cell_angle_beta   90.00003179
_cell_angle_gamma   89.99986957
_symmetry_Int_Tables_number   1
_chemical_formula_structural   AgH10AuC2(Br3N2)2
_chemical_formula_sum   'Ag2 H20 Au2 C4 Br12 N8'
_cell_volume   717.66489187
_cell_formula_units_Z   2
loop_
 _symmetry_equiv_pos_site_id
 _symmetry_equiv_pos_as_xyz
  1  'x, y, z'
loop_
 _atom_site_type_symbol
 _atom_site_label
 _atom_site_symmetry_multiplicity
 _atom_site_fract_x
 _atom_site_fract_y
 _atom_site_fract_z
 _atom_site_occupancy
  C  C0  1  0.49722165  0.28664552  0.49748290  1
  C  C1  1  0.99710169  0.21338653  0.00257214  1
  C  C2  1  0.50349921  0.78878733  0.50308798  1
  C  C3  1  0.00352640  0.71118173  0.99686572  1
  N  N4  1  0.58423783  0.23304580  0.60967110  1
  N  N5  1  0.41280598  0.23035111  0.38541367  1
  N  N6  1  0.08418512  0.26697493  0.89037288  1
  N  N7  1  0.91274987  0.26969076  0.11462859  1
  N  N8  1  0.58694730  0.73236791  0.61524883  1
  N  N9  1  0.41569964  0.73553318  0.39084070  1
  N  N10  1  0.08692999  0.76758616  0.88473341  1
  N  N11  1  0.91568855  0.76444892  0.10914751  1
  H  H12  1  0.49463269  0.38705465  0.49730802  1
  H  H13  1  0.64796781  0.28674629  0.68938863  1
  H  H14  1  0.59676424  0.13985213  0.62114223  1
  H  H15  1  0.34700084  0.28227336  0.30556925  1
  H  H16  1  0.40456568  0.13689027  0.37386109  1
  H  H17  1  0.99442470  0.11297862  0.00270888  1
  H  H18  1  0.14786727  0.21325223  0.81065559  1
  H  H19  1  0.09678121  0.36016196  0.87894714  1
  H  H20  1  0.84689710  0.21779562  0.19447440  1
  H  H21  1  0.90457723  0.36315636  0.12622342  1
  H  H22  1  0.50773139  0.88911130  0.50325142  1
  H  H23  1  0.65358438  0.78438357  0.69514742  1
  H  H24  1  0.59119943  0.63887149  0.62627689  1
  H  H25  1  0.35244322  0.78952360  0.31107033  1
  H  H26  1  0.40429153  0.64227728  0.37982916  1
  H  H27  1  0.00776431  0.61085784  0.99673507  1
  H  H28  1  0.15359338  0.71558200  0.80482567  1
  H  H29  1  0.09118126  0.86108781  0.87367104  1
  H  H30  1  0.85245401  0.71044098  0.18890417  1
  H  H31  1  0.90427465  0.85769911  0.12012756  1
  Ag  Ag32  1  0.49971224  0.98107178  0.99813585  1
  Ag  Ag33  1  0.99973066  0.51893996  0.50184916  1
  Au  Au34  1  0.00022327  0.01986640  0.49850031  1
  Au  Au35  1  0.50021471  0.48014447  0.00148543  1
  Br  Br36  1  0.49911256  0.24861364  0.99848440  1
  Br  Br37  1  0.25228101  0.97918070  0.18497431  1
  Br  Br38  1  0.75231891  0.02011088  0.31014669  1
  Br  Br39  1  0.99916559  0.25139518  0.50152435  1
  Br  Br40  1  0.24851787  0.02054946  0.68619213  1
  Br  Br41  1  0.74750996  0.98027639  0.81153123  1
  Br  Br42  1  0.49999176  0.71178501  0.00283621  1
  Br  Br43  1  0.75228388  0.52085180  0.31502373  1
  Br  Br44  1  0.25231694  0.47989522  0.18984653  1
  Br  Br45  1  -0.00000770  0.78822731  0.49713375  1
  Br  Br46  1  0.24753287  0.51969669  0.68844459  1
  Br  Br47  1  0.74852527  0.47946176  0.81381329  1
