# generated using pymatgen
data_AgSbH10C2(Br3N2)2
_symmetry_space_group_name_H-M   'P 1'
_cell_length_a   8.13051849
_cell_length_b   11.00715724
_cell_length_c   8.12166582
_cell_angle_alpha   90.12203905
_cell_angle_beta   90.00052652
_cell_angle_gamma   89.99893315
_symmetry_Int_Tables_number   1
_chemical_formula_structural   AgSbH10C2(Br3N2)2
_chemical_formula_sum   'Ag2 Sb2 H20 C4 Br12 N8'
_cell_volume   726.83786367
_cell_formula_units_Z   2
loop_
 _symmetry_equiv_pos_site_id
 _symmetry_equiv_pos_as_xyz
  1  'x, y, z'
loop_
 _atom_site_type_symbol
 _atom_site_label
 _atom_site_symmetry_multiplicity
 _atom_site_fract_x
 _atom_site_fract_y
 _atom_site_fract_z
 _atom_site_occupancy
  C  C0  1  0.49399801  0.29125233  0.49643191  1
  C  C1  1  0.99405931  0.20873933  0.00356462  1
  C  C2  1  0.50575245  0.79123359  0.50380225  1
  C  C3  1  0.00570102  0.70876808  0.99617501  1
  N  N4  1  0.59708016  0.23741530  0.59636965  1
  N  N5  1  0.39496534  0.23646479  0.39325688  1
  N  N6  1  0.09714982  0.26257971  0.90368194  1
  N  N7  1  0.89499834  0.26353400  0.10675837  1
  N  N8  1  0.60584161  0.73639354  0.60565635  1
  N  N9  1  0.40172144  0.73745118  0.40456692  1
  N  N10  1  0.10578042  0.76361910  0.89435681  1
  N  N11  1  0.90162828  0.76255128  0.09540916  1
  H  H12  1  0.48996522  0.39011012  0.49965798  1
  H  H13  1  0.66933770  0.28947998  0.67139412  1
  H  H14  1  0.60973534  0.14545004  0.60401183  1
  H  H15  1  0.31939337  0.28827094  0.32142788  1
  H  H16  1  0.38870377  0.14443287  0.37928904  1
  H  H17  1  0.98999642  0.10988743  0.00032102  1
  H  H18  1  0.16941913  0.21051483  0.82865342  1
  H  H19  1  0.10983909  0.35454655  0.89606772  1
  H  H20  1  0.81941687  0.21172268  0.17854814  1
  H  H21  1  0.88876018  0.35555440  0.12073572  1
  H  H22  1  0.50971019  0.89009587  0.50125905  1
  H  H23  1  0.68134582  0.78823341  0.67780025  1
  H  H24  1  0.61390516  0.64431816  0.61720590  1
  H  H25  1  0.32986406  0.78946367  0.32939065  1
  H  H26  1  0.38778063  0.64550917  0.39760679  1
  H  H27  1  0.00966143  0.60991083  0.99872449  1
  H  H28  1  0.18131239  0.71178220  0.82221587  1
  H  H29  1  0.11384062  0.85569396  0.88280736  1
  H  H30  1  0.82977489  0.71053021  0.17056006  1
  H  H31  1  0.88767401  0.85448599  0.10235751  1
  Ag  Ag32  1  0.50130941  0.99998122  0.99820040  1
  Ag  Ag33  1  0.00132156  0.50003208  0.50182478  1
  Sb  Sb34  1  0.00115627  0.00003053  0.49790263  1
  Sb  Sb35  1  0.50115245  0.49998099  0.00210014  1
  Br  Br36  1  0.49792629  0.24711835  0.99616285  1
  Br  Br37  1  0.21287295  0.98674333  0.22125039  1
  Br  Br38  1  0.72305730  0.01292243  0.28475780  1
  Br  Br39  1  0.99788570  0.25289310  0.50387826  1
  Br  Br40  1  0.27642335  0.01355929  0.71103993  1
  Br  Br41  1  0.78674774  0.98677446  0.77479675  1
  Br  Br42  1  0.50146627  0.75285102  0.00399080  1
  Br  Br43  1  0.71286637  0.51325788  0.27875772  1
  Br  Br44  1  0.22305057  0.48709183  0.21523730  1
  Br  Br45  1  0.00151651  0.74716162  0.49597014  1
  Br  Br46  1  0.28674386  0.51323566  0.72520633  1
  Br  Br47  1  0.77641021  0.48643364  0.78896384  1
