# generated using pymatgen
data_CaH12OsC2(I3N)2
_symmetry_space_group_name_H-M   'P 1'
_cell_length_a   8.13254450
_cell_length_b   11.70873528
_cell_length_c   8.08907779
_cell_angle_alpha   91.73159730
_cell_angle_beta   90.00337549
_cell_angle_gamma   89.99121637
_symmetry_Int_Tables_number   1
_chemical_formula_structural   CaH12OsC2(I3N)2
_chemical_formula_sum   'Ca2 H24 Os2 C4 I12 N4'
_cell_volume   769.90488431
_cell_formula_units_Z   2
loop_
 _symmetry_equiv_pos_site_id
 _symmetry_equiv_pos_as_xyz
  1  'x, y, z'
loop_
 _atom_site_type_symbol
 _atom_site_label
 _atom_site_symmetry_multiplicity
 _atom_site_fract_x
 _atom_site_fract_y
 _atom_site_fract_z
 _atom_site_occupancy
  C  C0  1  0.39558592  0.25056221  0.41257300  1
  C  C1  1  0.89671375  0.24965124  0.08835534  1
  C  C2  1  0.60441169  0.74944245  0.58743865  1
  C  C3  1  0.10329097  0.75035098  0.91165781  1
  N  N4  1  0.54011670  0.25092178  0.52286947  1
  N  N5  1  0.04059747  0.24910017  0.97723619  1
  N  N6  1  0.45988052  0.74908335  0.47714238  1
  N  N7  1  0.95940932  0.75089789  0.02277873  1
  H  H8  1  0.43783063  0.24891210  0.28412197  1
  H  H9  1  0.32130903  0.17513525  0.43602119  1
  H  H10  1  0.32454761  0.32823708  0.43803656  1
  H  H11  1  0.61120008  0.17829382  0.49932293  1
  H  H12  1  0.61311496  0.32160511  0.50066781  1
  H  H13  1  0.50768428  0.25338549  0.64812207  1
  H  H14  1  0.93977016  0.25137885  0.21655134  1
  H  H15  1  0.82544180  0.17200580  0.06351932  1
  H  H16  1  0.82237627  0.32512193  0.06526978  1
  H  H17  1  0.11362495  0.17837029  0.99909908  1
  H  H18  1  0.11186620  0.32168153  0.00030641  1
  H  H19  1  0.00745284  0.24660360  0.85215111  1
  H  H20  1  0.56216698  0.75109208  0.71588956  1
  H  H21  1  0.67544893  0.67176699  0.56197446  1
  H  H22  1  0.67868929  0.82486876  0.56399112  1
  H  H23  1  0.38879796  0.82171200  0.50068973  1
  H  H24  1  0.38688189  0.67840073  0.49934395  1
  H  H25  1  0.49231290  0.74662040  0.35188980  1
  H  H26  1  0.06023296  0.74862535  0.78346232  1
  H  H27  1  0.17456175  0.82799687  0.93649607  1
  H  H28  1  0.17763096  0.67488079  0.93473870  1
  H  H29  1  0.88637819  0.82162630  0.00091952  1
  H  H30  1  0.88814334  0.67831509  0.99970768  1
  H  H31  1  0.99255575  0.75339351  0.14786355  1
  Ca  Ca32  1  0.50000219  0.00000366  0.00000680  1
  Ca  Ca33  1  0.99999758  0.50000261  0.50000235  1
  Os  Os34  1  0.00000053  0.00000248  0.50000732  1
  Os  Os35  1  0.49999876  0.50000320  0.00000333  1
  I  I36  1  0.47480358  0.26803513  0.94871360  1
  I  I37  1  0.16949369  0.01137117  0.20556463  1
  I  I38  1  0.70855921  0.00234272  0.32810368  1
  I  I39  1  0.97405243  0.23192561  0.55178583  1
  I  I40  1  0.29144176  0.99766237  0.67191171  1
  I  I41  1  0.83050957  0.98863054  0.79445062  1
  I  I42  1  0.52519852  0.73197129  0.05129691  1
  I  I43  1  0.66937509  0.48864165  0.29446548  1
  I  I44  1  0.20851725  0.49774399  0.17182752  1
  I  I45  1  0.02594640  0.76807902  0.44822982  1
  I  I46  1  0.33062153  0.51136284  0.70554069  1
  I  I47  1  0.79147958  0.50226020  0.82817868  1
