# generated using pymatgen
data_CdH10PbC2(Br3N2)2
_symmetry_space_group_name_H-M   'P 1'
_cell_length_a   8.15764260
_cell_length_b   11.24543967
_cell_length_c   8.14784536
_cell_angle_alpha   89.95051518
_cell_angle_beta   89.99932688
_cell_angle_gamma   90.00118235
_symmetry_Int_Tables_number   1
_chemical_formula_structural   CdH10PbC2(Br3N2)2
_chemical_formula_sum   'Cd2 H20 Pb2 C4 Br12 N8'
_cell_volume   747.45272561
_cell_formula_units_Z   2
loop_
 _symmetry_equiv_pos_site_id
 _symmetry_equiv_pos_as_xyz
  1  'x, y, z'
loop_
 _atom_site_type_symbol
 _atom_site_label
 _atom_site_symmetry_multiplicity
 _atom_site_fract_x
 _atom_site_fract_y
 _atom_site_fract_z
 _atom_site_occupancy
  C  C0  1  0.49370748  0.29081754  0.49603041  1
  C  C1  1  0.99374834  0.20917510  0.00399141  1
  C  C2  1  0.50621751  0.79082734  0.50377047  1
  C  C3  1  0.00615606  0.70917671  0.99621219  1
  N  N4  1  0.59740720  0.23808021  0.59506226  1
  N  N5  1  0.39414532  0.23747309  0.39362998  1
  N  N6  1  0.09748476  0.26191676  0.90498262  1
  N  N7  1  0.89417604  0.26251894  0.10638247  1
  N  N8  1  0.60559223  0.73747183  0.60643978  1
  N  N9  1  0.40297130  0.73809491  0.40436327  1
  N  N10  1  0.10554611  0.76254110  0.89356101  1
  N  N11  1  0.90288004  0.76189959  0.09559899  1
  H  H12  1  0.48959695  0.38762711  0.49941576  1
  H  H13  1  0.67083927  0.28895030  0.66836140  1
  H  H14  1  0.60773167  0.14795768  0.60479044  1
  H  H15  1  0.31713613  0.28840560  0.32384769  1
  H  H16  1  0.39021880  0.14752347  0.37759919  1
  H  H17  1  0.98962221  0.11236597  0.00058381  1
  H  H18  1  0.17092419  0.21104596  0.83169824  1
  H  H19  1  0.10783752  0.35203615  0.89528922  1
  H  H20  1  0.81713601  0.21158479  0.17614612  1
  H  H21  1  0.89026137  0.35246942  0.12242483  1
  H  H22  1  0.51002720  0.88764950  0.50050255  1
  H  H23  1  0.67910263  0.78846179  0.67969546  1
  H  H24  1  0.61585445  0.64730398  0.61630451  1
  H  H25  1  0.33274031  0.78892279  0.32780169  1
  H  H26  1  0.38684261  0.64818960  0.40064640  1
  H  H27  1  0.00997565  0.61235478  0.99947938  1
  H  H28  1  0.17908177  0.71155930  0.82031951  1
  H  H29  1  0.11580538  0.85271004  0.88370534  1
  H  H30  1  0.83263553  0.71106467  0.17214724  1
  H  H31  1  0.88673274  0.85180410  0.09930903  1
  Cd  Cd32  1  0.49980399  0.99996519  0.99767058  1
  Cd  Cd33  1  0.99980708  0.50005115  0.50234248  1
  Pb  Pb34  1  0.00099636  0.00006219  0.49739761  1
  Pb  Pb35  1  0.50099228  0.49995420  0.00260704  1
  Br  Br36  1  0.49823970  0.23934022  0.99444192  1
  Br  Br37  1  0.21900428  0.98467358  0.20284967  1
  Br  Br38  1  0.70394047  0.01679004  0.27967062  1
  Br  Br39  1  0.99819694  0.26067285  0.50560029  1
  Br  Br40  1  0.29474317  0.01477813  0.71733649  1
  Br  Br41  1  0.78113264  0.98381906  0.79352815  1
  Br  Br42  1  0.50210159  0.76066369  0.00497019  1
  Br  Br43  1  0.71899013  0.51532546  0.29715998  1
  Br  Br44  1  0.20392470  0.48321384  0.22032151  1
  Br  Br45  1  0.00214529  0.73934954  0.49497322  1
  Br  Br46  1  0.28113435  0.51619942  0.70647570  1
  Br  Br47  1  0.79473160  0.48522428  0.78266660  1
