# generated using pymatgen
data_CdHgH10C2(Br3N2)2
_symmetry_space_group_name_H-M   'P 1'
_cell_length_a   8.15835230
_cell_length_b   11.04971807
_cell_length_c   8.14672806
_cell_angle_alpha   90.05724554
_cell_angle_beta   89.99978759
_cell_angle_gamma   90.00050191
_symmetry_Int_Tables_number   1
_chemical_formula_structural   CdHgH10C2(Br3N2)2
_chemical_formula_sum   'Cd2 Hg2 H20 C4 Br12 N8'
_cell_volume   734.40674210
_cell_formula_units_Z   2
loop_
 _symmetry_equiv_pos_site_id
 _symmetry_equiv_pos_as_xyz
  1  'x, y, z'
loop_
 _atom_site_type_symbol
 _atom_site_label
 _atom_site_symmetry_multiplicity
 _atom_site_fract_x
 _atom_site_fract_y
 _atom_site_fract_z
 _atom_site_occupancy
  C  C0  1  0.49493683  0.29050639  0.49587259  1
  C  C1  1  0.99497535  0.20948951  0.00415095  1
  C  C2  1  0.50522355  0.79048902  0.50413799  1
  C  C3  1  0.00515904  0.70952142  0.99586614  1
  N  N4  1  0.59897927  0.23726240  0.59470625  1
  N  N5  1  0.39422538  0.23586416  0.39477770  1
  N  N6  1  0.09905989  0.26274316  0.90532068  1
  N  N7  1  0.89428287  0.26412953  0.10523088  1
  N  N8  1  0.60377719  0.73581401  0.60701575  1
  N  N9  1  0.40272223  0.73729856  0.40337815  1
  N  N10  1  0.10373567  0.76420142  0.89297228  1
  N  N11  1  0.90266908  0.76268804  0.09658405  1
  H  H12  1  0.49151787  0.38906155  0.49799583  1
  H  H13  1  0.67201834  0.29001220  0.66755188  1
  H  H14  1  0.61038646  0.14563502  0.60502309  1
  H  H15  1  0.31819615  0.28798151  0.32439998  1
  H  H16  1  0.38821930  0.14418171  0.38035354  1
  H  H17  1  0.99154890  0.11093553  0.00199087  1
  H  H18  1  0.17208381  0.20998835  0.83247981  1
  H  H19  1  0.11047638  0.35436371  0.89503967  1
  H  H20  1  0.81822522  0.21201035  0.17559632  1
  H  H21  1  0.88828208  0.35581134  0.11967887  1
  H  H22  1  0.50897338  0.88904032  0.50205718  1
  H  H23  1  0.67734970  0.78795879  0.68012259  1
  H  H24  1  0.61338528  0.64402258  0.61750501  1
  H  H25  1  0.33252238  0.79000722  0.32793712  1
  H  H26  1  0.38736748  0.64578511  0.39676436  1
  H  H27  1  0.00894457  0.61096595  0.99792854  1
  H  H28  1  0.17732067  0.71206548  0.81988741  1
  H  H29  1  0.11332380  0.85599408  0.88249949  1
  H  H30  1  0.83245802  0.70997989  0.17203707  1
  H  H31  1  0.88728069  0.85421357  0.10321153  1
  Cd  Cd32  1  0.50003573  0.99998318  0.99726049  1
  Cd  Cd33  1  1.00004079  0.50002830  0.50274882  1
  Hg  Hg34  1  0.00180168  0.99999431  0.49589095  1
  Hg  Hg35  1  0.50180608  0.50001339  0.00411599  1
  Br  Br36  1  0.49790720  0.27216404  0.99587657  1
  Br  Br37  1  0.23562481  0.98307076  0.19802758  1
  Br  Br38  1  0.69982069  0.01540139  0.26251169  1
  Br  Br39  1  0.99784616  0.22784140  0.50418111  1
  Br  Br40  1  0.29966603  0.01712256  0.73354431  1
  Br  Br41  1  0.76440450  0.98453634  0.79740558  1
  Br  Br42  1  0.50095359  0.72796725  0.00426044  1
  Br  Br43  1  0.73562257  0.51692573  0.30197518  1
  Br  Br44  1  0.19981092  0.48460578  0.23748558  1
  Br  Br45  1  0.00099452  0.77203953  0.49569055  1
  Br  Br46  1  0.26440260  0.51547103  0.70260480  1
  Br  Br47  1  0.79965467  0.48287611  0.76645153  1
