# generated using pymatgen
data_CdH10PtC2(Br3N2)2
_symmetry_space_group_name_H-M   'P 1'
_cell_length_a   7.69799483
_cell_length_b   10.86169181
_cell_length_c   8.51679575
_cell_angle_alpha   90.30603741
_cell_angle_beta   90.00893277
_cell_angle_gamma   89.99618305
_symmetry_Int_Tables_number   1
_chemical_formula_structural   CdH10PtC2(Br3N2)2
_chemical_formula_sum   'Cd2 H20 Pt2 C4 Br12 N8'
_cell_volume   712.10678130
_cell_formula_units_Z   2
loop_
 _symmetry_equiv_pos_site_id
 _symmetry_equiv_pos_as_xyz
  1  'x, y, z'
loop_
 _atom_site_type_symbol
 _atom_site_label
 _atom_site_symmetry_multiplicity
 _atom_site_fract_x
 _atom_site_fract_y
 _atom_site_fract_z
 _atom_site_occupancy
  C  C0  1  0.48168661  0.29275419  0.48391716  1
  C  C1  1  0.98213693  0.20728347  0.01609591  1
  C  C2  1  0.51803498  0.78894452  0.51634783  1
  C  C3  1  0.01772396  0.71105501  0.98360817  1
  N  N4  1  0.56822345  0.24381656  0.60018883  1
  N  N5  1  0.39667034  0.23218456  0.37497003  1
  N  N6  1  0.06886326  0.25628494  0.89996550  1
  N  N7  1  0.89755881  0.26780729  0.12530158  1
  N  N8  1  0.60004100  0.72823658  0.62631443  1
  N  N9  1  0.43122845  0.74017905  0.39932706  1
  N  N10  1  0.09930283  0.77172272  0.87339964  1
  N  N11  1  0.93090511  0.75987024  0.10059612  1
  H  H12  1  0.48028391  0.39282323  0.47628374  1
  H  H13  1  0.63235948  0.29983128  0.67789818  1
  H  H14  1  0.58115888  0.15112639  0.61481045  1
  H  H15  1  0.33348632  0.28118688  0.29017370  1
  H  H16  1  0.38464036  0.13865358  0.37228782  1
  H  H17  1  0.98021925  0.10720121  0.02328356  1
  H  H18  1  0.13262637  0.20027801  0.82202281  1
  H  H19  1  0.08223283  0.34896892  0.88569405  1
  H  H20  1  0.83408938  0.21877553  0.20988600  1
  H  H21  1  0.88592995  0.36136689  0.12831694  1
  H  H22  1  0.52245822  0.88908198  0.52358927  1
  H  H23  1  0.66540352  0.77725415  0.71020628  1
  H  H24  1  0.60377636  0.63453241  0.63389819  1
  H  H25  1  0.36773715  0.79657702  0.32254446  1
  H  H26  1  0.42084426  0.64771471  0.38015209  1
  H  H27  1  0.02252137  0.61091463  0.97667187  1
  H  H28  1  0.16475490  0.72268856  0.78957713  1
  H  H29  1  0.10270295  0.86542086  0.86557284  1
  H  H30  1  0.86779425  0.70348765  0.17762252  1
  H  H31  1  0.92024238  0.85234100  0.11954407  1
  Cd  Cd32  1  0.51152605  0.98991928  0.00260240  1
  Cd  Cd33  1  0.01157613  0.50983286  0.49750124  1
  Pt  Pt34  1  0.00148017  0.01485509  0.49497566  1
  Pt  Pt35  1  0.50162244  0.48512123  0.00498453  1
  Br  Br36  1  0.48259066  0.25823114  0.98800937  1
  Br  Br37  1  0.25338605  0.97887349  0.18186930  1
  Br  Br38  1  0.74961918  0.01264741  0.31156326  1
  Br  Br39  1  0.98189944  0.24171191  0.51254055  1
  Br  Br40  1  0.25068195  0.02183399  0.67784824  1
  Br  Br41  1  0.75013989  0.98748954  0.80257011  1
  Br  Br42  1  0.51153023  0.71192198  0.01284688  1
  Br  Br43  1  0.75354653  0.52106138  0.31800294  1
  Br  Br44  1  0.24978641  0.48743950  0.18836439  1
  Br  Br45  1  0.01183151  0.78808285  0.48673636  1
  Br  Br46  1  0.25033567  0.51260750  0.69743162  1
  Br  Br47  1  0.75082916  0.47806982  0.82218967  1
