# generated using pymatgen
data_HfCdH10C2(Br3N2)2
_symmetry_space_group_name_H-M   'P 1'
_cell_length_a   8.20566672
_cell_length_b   11.62436207
_cell_length_c   8.32482424
_cell_angle_alpha   90.44835254
_cell_angle_beta   89.99991021
_cell_angle_gamma   89.99795823
_symmetry_Int_Tables_number   1
_chemical_formula_structural   HfCdH10C2(Br3N2)2
_chemical_formula_sum   'Hf2 Cd2 H20 C4 Br12 N8'
_cell_volume   794.04438448
_cell_formula_units_Z   2
loop_
 _symmetry_equiv_pos_site_id
 _symmetry_equiv_pos_as_xyz
  1  'x, y, z'
loop_
 _atom_site_type_symbol
 _atom_site_label
 _atom_site_symmetry_multiplicity
 _atom_site_fract_x
 _atom_site_fract_y
 _atom_site_fract_z
 _atom_site_occupancy
  C  C0  1  0.49599566  0.28684920  0.49763950  1
  C  C1  1  0.99594997  0.21318803  0.00232773  1
  C  C2  1  0.50440101  0.78643302  0.50326866  1
  C  C3  1  0.00435393  0.71352553  0.99671666  1
  N  N4  1  0.59481065  0.23708278  0.59975009  1
  N  N5  1  0.40256975  0.23380524  0.39284216  1
  N  N6  1  0.09480894  0.26297614  0.90028267  1
  N  N7  1  0.90251974  0.26621347  0.10714948  1
  N  N8  1  0.60080579  0.73371364  0.60465465  1
  N  N9  1  0.40171169  0.73645328  0.40404810  1
  N  N10  1  0.10070769  0.76623884  0.89527398  1
  N  N11  1  0.90166897  0.76350641  0.09593319  1
  H  H12  1  0.49085438  0.38057061  0.50024148  1
  H  H13  1  0.66181906  0.28713594  0.67621044  1
  H  H14  1  0.61143286  0.15013413  0.60527093  1
  H  H15  1  0.33091261  0.28165613  0.31883476  1
  H  H16  1  0.39514339  0.14638880  0.38211754  1
  H  H17  1  0.99076444  0.11946991  0.99963870  1
  H  H18  1  0.16182442  0.21293851  0.82380347  1
  H  H19  1  0.11147750  0.34992139  0.89484106  1
  H  H20  1  0.83082407  0.21834869  0.18109828  1
  H  H21  1  0.89512331  0.35362625  0.11793750  1
  H  H22  1  0.51038805  0.88012214  0.50111742  1
  H  H23  1  0.67658646  0.78190044  0.67517731  1
  H  H24  1  0.60321555  0.64657027  0.61897716  1
  H  H25  1  0.33172913  0.78638490  0.33120221  1
  H  H26  1  0.38896831  0.64936321  0.39320198  1
  H  H27  1  0.01039742  0.61983804  0.99891113  1
  H  H28  1  0.17648701  0.71805223  0.82475267  1
  H  H29  1  0.10305337  0.85337826  0.88090176  1
  H  H30  1  0.83173084  0.71357275  0.16882530  1
  H  H31  1  0.88887970  0.85059554  0.10674210  1
  Cd  Cd32  1  0.49975821  0.99798679  0.99614024  1
  Cd  Cd33  1  0.99964791  0.50202015  0.50406840  1
  Hf  Hf34  1  0.00078346  0.00153679  0.49670271  1
  Hf  Hf35  1  0.50073108  0.49848397  0.00333321  1
  Br  Br36  1  0.49897162  0.27700131  0.99822556  1
  Br  Br37  1  0.17987465  0.98996762  0.23551347  1
  Br  Br38  1  0.73620774  0.01284570  0.31819473  1
  Br  Br39  1  0.99905842  0.22301718  0.50177199  1
  Br  Br40  1  0.26454849  0.01244089  0.67485672  1
  Br  Br41  1  0.81940292  0.98963719  0.75745818  1
  Br  Br42  1  0.49947652  0.72004676  0.00491172  1
  Br  Br43  1  0.67991520  0.51007641  0.26447408  1
  Br  Br44  1  0.23622395  0.48719400  0.18194860  1
  Br  Br45  1  0.99956692  0.77996730  0.49501911  1
  Br  Br46  1  0.31940230  0.51034270  0.74255278  1
  Br  Br47  1  0.76453431  0.48754446  0.82524318  1
