# generated using pymatgen
data_BaCdH10C2(Br3N2)2
_symmetry_space_group_name_H-M   'P 1'
_cell_length_a   8.23964228
_cell_length_b   11.53065310
_cell_length_c   8.35486624
_cell_angle_alpha   90.51524236
_cell_angle_beta   89.99924739
_cell_angle_gamma   89.99430019
_symmetry_Int_Tables_number   1
_chemical_formula_structural   BaCdH10C2(Br3N2)2
_chemical_formula_sum   'Ba2 Cd2 H20 C4 Br12 N8'
_cell_volume   793.75084866
_cell_formula_units_Z   2
loop_
 _symmetry_equiv_pos_site_id
 _symmetry_equiv_pos_as_xyz
  1  'x, y, z'
loop_
 _atom_site_type_symbol
 _atom_site_label
 _atom_site_symmetry_multiplicity
 _atom_site_fract_x
 _atom_site_fract_y
 _atom_site_fract_z
 _atom_site_occupancy
  C  C0  1  0.49719748  0.29834408  0.50467529  1
  C  C1  1  0.99714862  0.20169349  0.99526639  1
  C  C2  1  0.50209994  0.79843072  0.48854206  1
  C  C3  1  0.00204910  0.70153362  0.01143807  1
  N  N4  1  0.61269330  0.25026639  0.58924181  1
  N  N5  1  0.41930365  0.24805945  0.38583681  1
  N  N6  1  0.11271425  0.24977369  0.91079735  1
  N  N7  1  0.91926287  0.25193247  0.11415312  1
  N  N8  1  0.57590389  0.74905610  0.60891013  1
  N  N9  1  0.38716471  0.75031085  0.40140359  1
  N  N10  1  0.07586717  0.75096440  0.89114248  1
  N  N11  1  0.88712232  0.74962880  0.09865349  1
  H  H12  1  0.46110443  0.38655276  0.53746590  1
  H  H13  1  0.67174563  0.29791134  0.67500196  1
  H  H14  1  0.64921695  0.16685381  0.57060328  1
  H  H15  1  0.32937930  0.29330312  0.32965064  1
  H  H16  1  0.45118942  0.16836052  0.34144052  1
  H  H17  1  0.96098976  0.11352817  0.96233473  1
  H  H18  1  0.17175205  0.20216457  0.82498532  1
  H  H19  1  0.14933273  0.33313463  0.92961676  1
  H  H20  1  0.82929400  0.20669026  0.17026073  1
  H  H21  1  0.95118481  0.33158547  0.15866268  1
  H  H22  1  0.54071199  0.88568175  0.45569489  1
  H  H23  1  0.65766708  0.79624952  0.67486738  1
  H  H24  1  0.54473854  0.66833736  0.64739328  1
  H  H25  1  0.33900076  0.79556649  0.30812022  1
  H  H26  1  0.33737885  0.67176551  0.42824100  1
  H  H27  1  0.04062772  0.61424343  0.04417237  1
  H  H28  1  0.15762187  0.70378795  0.82512539  1
  H  H29  1  0.04473194  0.83172194  0.85276299  1
  H  H30  1  0.83895107  0.70431764  0.19187029  1
  H  H31  1  0.83737720  0.82820921  0.07193740  1
  Cd  Cd32  1  0.49306566  0.00166784  0.97818766  1
  Cd  Cd33  1  0.99310611  0.49834795  0.52180585  1
  Ba  Ba34  1  0.01199003  0.99878408  0.47757437  1
  Ba  Ba35  1  0.51198837  0.50123159  0.02241617  1
  Br  Br36  1  0.51429253  0.23409122  0.98438283  1
  Br  Br37  1  0.21738228  0.98933599  0.16770149  1
  Br  Br38  1  0.69245396  0.02307121  0.26703692  1
  Br  Br39  1  0.01431241  0.26592267  0.51561703  1
  Br  Br40  1  0.31587418  0.01665402  0.70019570  1
  Br  Br41  1  0.78512099  0.97438598  0.79109102  1
  Br  Br42  1  0.49350689  0.76870130  0.00085307  1
  Br  Br43  1  0.71745326  0.51068761  0.33223446  1
  Br  Br44  1  0.19246861  0.47690118  0.23293642  1
  Br  Br45  1  0.99352284  0.73131404  0.49916545  1
  Br  Br46  1  0.28513480  0.52563107  0.70889751  1
  Br  Br47  1  0.81582300  0.48337570  0.79974048  1
