# generated using pymatgen
data_CdSnH10C2(Br3N2)2
_symmetry_space_group_name_H-M   'P 1'
_cell_length_a   8.13332040
_cell_length_b   11.15761497
_cell_length_c   8.12227199
_cell_angle_alpha   89.95134539
_cell_angle_beta   90.00008203
_cell_angle_gamma   90.00022808
_symmetry_Int_Tables_number   1
_chemical_formula_structural   CdSnH10C2(Br3N2)2
_chemical_formula_sum   'Cd2 Sn2 H20 C4 Br12 N8'
_cell_volume   737.08338741
_cell_formula_units_Z   2
loop_
 _symmetry_equiv_pos_site_id
 _symmetry_equiv_pos_as_xyz
  1  'x, y, z'
loop_
 _atom_site_type_symbol
 _atom_site_label
 _atom_site_symmetry_multiplicity
 _atom_site_fract_x
 _atom_site_fract_y
 _atom_site_fract_z
 _atom_site_occupancy
  C  C0  1  0.49424337  0.29063568  0.49611218  1
  C  C1  1  0.99428839  0.20936015  0.00389868  1
  C  C2  1  0.50553177  0.79064906  0.50372600  1
  C  C3  1  0.00548549  0.70935503  0.99625793  1
  N  N4  1  0.59797009  0.23752815  0.59568628  1
  N  N5  1  0.39460855  0.23672981  0.39342410  1
  N  N6  1  0.09803668  0.26246623  0.90435779  1
  N  N7  1  0.89464499  0.26326465  0.10658727  1
  N  N8  1  0.60534506  0.73675205  0.60634795  1
  N  N9  1  0.40196543  0.73751651  0.40409963  1
  N  N10  1  0.10530324  0.76326198  0.89365420  1
  N  N11  1  0.90189229  0.76248019  0.09587042  1
  H  H12  1  0.49019235  0.38821907  0.49917367  1
  H  H13  1  0.67109791  0.28890851  0.66963641  1
  H  H14  1  0.60943144  0.14672297  0.60493464  1
  H  H15  1  0.31799454  0.28798266  0.32263219  1
  H  H16  1  0.38961115  0.14599618  0.37831317  1
  H  H17  1  0.99021990  0.11177647  0.00081113  1
  H  H18  1  0.17117147  0.21108710  0.83040735  1
  H  H19  1  0.10952710  0.35327186  0.89513894  1
  H  H20  1  0.81801021  0.21201138  0.17735361  1
  H  H21  1  0.88966200  0.35399579  0.12171564  1
  H  H22  1  0.50922269  0.88823559  0.50078628  1
  H  H23  1  0.67966623  0.78806496  0.67933364  1
  H  H24  1  0.61496027  0.64587031  0.61710391  1
  H  H25  1  0.33101892  0.78885010  0.32786908  1
  H  H26  1  0.38676756  0.64684631  0.39887980  1
  H  H27  1  0.00919265  0.61177009  0.99919273  1
  H  H28  1  0.17964633  0.71195731  0.82067960  1
  H  H29  1  0.11490796  0.85414473  0.88290775  1
  H  H30  1  0.83094328  0.71113796  0.17208663  1
  H  H31  1  0.88667344  0.85314807  0.10108703  1
  Cd  Cd32  1  0.50015327  0.99998626  0.99753511  1
  Cd  Cd33  1  0.00016033  0.50002664  0.50247572  1
  Sn  Sn34  1  0.00145097  0.00003296  0.49727749  1
  Sn  Sn35  1  0.50145253  0.49997983  0.00272662  1
  Br  Br36  1  0.49832479  0.24244053  0.99545167  1
  Br  Br37  1  0.22072156  0.98531913  0.20922517  1
  Br  Br38  1  0.71086792  0.01464242  0.27753530  1
  Br  Br39  1  0.99828150  0.25757114  0.50458696  1
  Br  Br40  1  0.28818571  0.01439356  0.71885249  1
  Br  Br41  1  0.77921172  0.98568858  0.78651024  1
  Br  Br42  1  0.50149404  0.75756295  0.00392717  1
  Br  Br43  1  0.72071232  0.51468108  0.29078721  1
  Br  Br44  1  0.21085565  0.48536135  0.22246336  1
  Br  Br45  1  0.00153173  0.74244750  0.49603242  1
  Br  Br46  1  0.27921026  0.51432228  0.71349989  1
  Br  Br47  1  0.78817227  0.48560985  0.78115228  1
