# generated using pymatgen
data_InBiH10C2(Br3N2)2
_symmetry_space_group_name_H-M   'P 1'
_cell_length_a   8.28688371
_cell_length_b   11.58999503
_cell_length_c   8.27533338
_cell_angle_alpha   90.08054637
_cell_angle_beta   90.00008313
_cell_angle_gamma   89.99687130
_symmetry_Int_Tables_number   1
_chemical_formula_structural   InBiH10C2(Br3N2)2
_chemical_formula_sum   'In2 Bi2 H20 C4 Br12 N8'
_cell_volume   794.80311922
_cell_formula_units_Z   2
loop_
 _symmetry_equiv_pos_site_id
 _symmetry_equiv_pos_as_xyz
  1  'x, y, z'
loop_
 _atom_site_type_symbol
 _atom_site_label
 _atom_site_symmetry_multiplicity
 _atom_site_fract_x
 _atom_site_fract_y
 _atom_site_fract_z
 _atom_site_occupancy
  C  C0  1  0.49327454  0.29058930  0.49629801  1
  C  C1  1  0.99333170  0.20939776  0.00371667  1
  C  C2  1  0.50665211  0.79057776  0.50386009  1
  C  C3  1  0.00658900  0.70943113  0.99611572  1
  N  N4  1  0.59486349  0.23912754  0.59415549  1
  N  N5  1  0.39565023  0.23880862  0.39470334  1
  N  N6  1  0.09495401  0.26086014  0.90590116  1
  N  N7  1  0.89568982  0.26117940  0.10530198  1
  N  N8  1  0.60504128  0.73884874  0.60456698  1
  N  N9  1  0.40431057  0.73907955  0.40664632  1
  N  N10  1  0.10499870  0.76116541  0.89543857  1
  N  N11  1  0.90421887  0.76092123  0.09330826  1
  H  H12  1  0.48939918  0.38458770  0.50001000  1
  H  H13  1  0.66572241  0.28785590  0.66857260  1
  H  H14  1  0.60826984  0.15171997  0.59886871  1
  H  H15  1  0.32152487  0.28781663  0.32387445  1
  H  H16  1  0.38879360  0.15131217  0.38252166  1
  H  H17  1  0.98944259  0.11540164  0.99997598  1
  H  H18  1  0.16583074  0.21213028  0.83149537  1
  H  H19  1  0.10838909  0.34826524  0.90123531  1
  H  H20  1  0.82153874  0.21217245  0.17609798  1
  H  H21  1  0.88884281  0.34867454  0.11750376  1
  H  H22  1  0.51053765  0.88457731  0.50033778  1
  H  H23  1  0.67985943  0.78790506  0.67479885  1
  H  H24  1  0.61067541  0.65139863  0.61768258  1
  H  H25  1  0.33302867  0.78774512  0.33275386  1
  H  H26  1  0.39224470  0.65161416  0.40029481  1
  H  H27  1  0.01048615  0.61543029  0.99962298  1
  H  H28  1  0.17984041  0.71211523  0.82521962  1
  H  H29  1  0.11062563  0.84861639  0.88234122  1
  H  H30  1  0.83291493  0.71225078  0.16716711  1
  H  H31  1  0.89212132  0.84838738  0.09965709  1
  In  In32  1  0.49976869  0.99993495  0.99772995  1
  In  In33  1  0.99976856  0.50008358  0.50228803  1
  Bi  Bi34  1  0.00061808  0.00006189  0.49808034  1
  Bi  Bi35  1  0.50061098  0.49995412  0.00192668  1
  Br  Br36  1  0.49783837  0.25537884  0.99411781  1
  Br  Br37  1  0.20054207  0.98532343  0.21427191  1
  Br  Br38  1  0.71417906  0.01896166  0.29952664  1
  Br  Br39  1  0.99780029  0.24463655  0.50593664  1
  Br  Br40  1  0.28353357  0.01538482  0.69836086  1
  Br  Br41  1  0.80181503  0.98038151  0.78393619  1
  Br  Br42  1  0.50191059  0.74459305  0.00610873  1
  Br  Br43  1  0.70052131  0.51467920  0.28574420  1
  Br  Br44  1  0.21415758  0.48105393  0.20046654  1
  Br  Br45  1  0.00195210  0.75542558  0.49384944  1
  Br  Br46  1  0.30182276  0.51963649  0.71606373  1
  Br  Br47  1  0.78351780  0.48460992  0.80165273  1
