# generated using pymatgen
data_TlInH10C2(Br3N2)2
_symmetry_space_group_name_H-M   'P 1'
_cell_length_a   8.23669480
_cell_length_b   11.42552472
_cell_length_c   8.22420526
_cell_angle_alpha   89.85121257
_cell_angle_beta   89.99990483
_cell_angle_gamma   90.00091964
_symmetry_Int_Tables_number   1
_chemical_formula_structural   TlInH10C2(Br3N2)2
_chemical_formula_sum   'Tl2 In2 H20 C4 Br12 N8'
_cell_volume   773.96550532
_cell_formula_units_Z   2
loop_
 _symmetry_equiv_pos_site_id
 _symmetry_equiv_pos_as_xyz
  1  'x, y, z'
loop_
 _atom_site_type_symbol
 _atom_site_label
 _atom_site_symmetry_multiplicity
 _atom_site_fract_x
 _atom_site_fract_y
 _atom_site_fract_z
 _atom_site_occupancy
  C  C0  1  0.49369978  0.29058624  0.49587463  1
  C  C1  1  0.99375046  0.20940584  0.00414286  1
  C  C2  1  0.50648647  0.79061470  0.50361184  1
  C  C3  1  0.00642950  0.70939093  0.99636868  1
  N  N4  1  0.59701314  0.23846029  0.59346188  1
  N  N5  1  0.39437529  0.23819760  0.39496695  1
  N  N6  1  0.09709331  0.26153439  0.90658849  1
  N  N7  1  0.89441213  0.26179047  0.10504014  1
  N  N8  1  0.60447281  0.73816209  0.60612262  1
  N  N9  1  0.40469685  0.73854010  0.40473980  1
  N  N10  1  0.10443116  0.76185453  0.89387941  1
  N  N11  1  0.90460924  0.76145459  0.09521697  1
  H  H12  1  0.48976038  0.38587806  0.49923636  1
  H  H13  1  0.67015001  0.28816995  0.66588327  1
  H  H14  1  0.60654151  0.14971556  0.60357669  1
  H  H15  1  0.31747438  0.28821091  0.32632499  1
  H  H16  1  0.39087695  0.14966610  0.37883574  1
  H  H17  1  0.98979519  0.11411452  0.00076139  1
  H  H18  1  0.17024495  0.21182591  0.83418173  1
  H  H19  1  0.10665464  0.35027936  0.89650835  1
  H  H20  1  0.81748767  0.21177562  0.17365605  1
  H  H21  1  0.89092614  0.35032053  0.12118539  1
  H  H22  1  0.51019147  0.88591578  0.49999540  1
  H  H23  1  0.67688128  0.78815900  0.67912371  1
  H  H24  1  0.61493870  0.64938752  0.61581313  1
  H  H25  1  0.33528777  0.78829978  0.32840176  1
  H  H26  1  0.38826057  0.65005782  0.40210446  1
  H  H27  1  0.01014684  0.61409009  0.99998281  1
  H  H28  1  0.17686467  0.71186658  0.82089503  1
  H  H29  1  0.11488827  0.85062957  0.88419847  1
  H  H30  1  0.83518477  0.71168661  0.17153435  1
  H  H31  1  0.88814926  0.84993501  0.09784379  1
  In  In32  1  0.49911781  0.99996080  0.99815060  1
  In  In33  1  0.99911673  0.50005328  0.50186280  1
  Tl  Tl34  1  0.00024042  0.00008635  0.49748606  1
  Tl  Tl35  1  0.50023758  0.49993029  0.00252489  1
  Br  Br36  1  0.49869035  0.23117713  0.99377444  1
  Br  Br37  1  0.22769888  0.98691485  0.18971441  1
  Br  Br38  1  0.69015905  0.01605202  0.27119470  1
  Br  Br39  1  0.99865489  0.26883747  0.50626812  1
  Br  Br40  1  0.30831951  0.01163747  0.72611329  1
  Br  Br41  1  0.77225716  0.98542418  0.80747288  1
  Br  Br42  1  0.50245975  0.76880589  0.00516410  1
  Br  Br43  1  0.72768223  0.51308155  0.31030547  1
  Br  Br44  1  0.19014243  0.48394722  0.22880033  1
  Br  Br45  1  0.00249987  0.73120596  0.49478607  1
  Br  Br46  1  0.27225799  0.51459749  0.69253360  1
  Br  Br47  1  0.80830912  0.48837498  0.77389583  1
