# generated using pymatgen
data_InH10AuC2(Br3N2)2
_symmetry_space_group_name_H-M   'P 1'
_cell_length_a   7.78154283
_cell_length_b   11.29866818
_cell_length_c   8.27489846
_cell_angle_alpha   89.97936352
_cell_angle_beta   89.99960110
_cell_angle_gamma   89.99979397
_symmetry_Int_Tables_number   1
_chemical_formula_structural   InH10AuC2(Br3N2)2
_chemical_formula_sum   'In2 H20 Au2 C4 Br12 N8'
_cell_volume   727.53788263
_cell_formula_units_Z   2
loop_
 _symmetry_equiv_pos_site_id
 _symmetry_equiv_pos_as_xyz
  1  'x, y, z'
loop_
 _atom_site_type_symbol
 _atom_site_label
 _atom_site_symmetry_multiplicity
 _atom_site_fract_x
 _atom_site_fract_y
 _atom_site_fract_z
 _atom_site_occupancy
  C  C0  1  0.49723671  0.28732830  0.49773359  1
  C  C1  1  0.99714663  0.21272144  0.00228048  1
  C  C2  1  0.50393493  0.78800954  0.50196312  1
  C  C3  1  0.00393456  0.71194716  0.99803506  1
  N  N4  1  0.59202170  0.23528487  0.60758858  1
  N  N5  1  0.40503819  0.23338530  0.38780914  1
  N  N6  1  0.09197014  0.26474330  0.89245389  1
  N  N7  1  0.90496025  0.26668490  0.11221224  1
  N  N8  1  0.59384478  0.73344126  0.61312594  1
  N  N9  1  0.40860334  0.73648535  0.39225752  1
  N  N10  1  0.09384618  0.76652118  0.88685726  1
  N  N11  1  0.90859230  0.76346389  0.10772344  1
  H  H12  1  0.49483650  0.38379683  0.49774840  1
  H  H13  1  0.65964994  0.28643469  0.68694835  1
  H  H14  1  0.60637540  0.14570214  0.61609239  1
  H  H15  1  0.33548301  0.28344077  0.30851878  1
  H  H16  1  0.39481600  0.14356270  0.37881453  1
  H  H17  1  0.99466711  0.11625290  0.00225456  1
  H  H18  1  0.15958128  0.21358168  0.81308852  1
  H  H19  1  0.10639512  0.35432037  0.88397206  1
  H  H20  1  0.83536488  0.21665015  0.19148852  1
  H  H21  1  0.89480637  0.35651334  0.12122467  1
  H  H22  1  0.50935051  0.88443673  0.50063045  1
  H  H23  1  0.66632011  0.78281682  0.69077698  1
  H  H24  1  0.59580767  0.64370785  0.62696855  1
  H  H25  1  0.34031333  0.78800689  0.31370339  1
  H  H26  1  0.39695791  0.64687272  0.38128577  1
  H  H27  1  0.00938021  0.61552113  0.99937301  1
  H  H28  1  0.16633324  0.71714329  0.80922308  1
  H  H29  1  0.09578794  0.85625162  0.87300835  1
  H  H30  1  0.84030417  0.71193414  0.18627816  1
  H  H31  1  0.89691698  0.85307601  0.11869030  1
  In  In32  1  0.49641121  0.98824605  0.99504106  1
  In  In33  1  0.99636535  0.51175619  0.50503564  1
  Au  Au34  1  0.00070399  0.01044243  0.49883952  1
  Au  Au35  1  0.50072389  0.48956321  0.00112705  1
  Br  Br36  1  0.49995468  0.21743650  0.99797536  1
  Br  Br37  1  0.23303596  0.98347428  0.20146878  1
  Br  Br38  1  0.74710220  0.01765344  0.30795266  1
  Br  Br39  1  0.99999353  0.28256930  0.50200399  1
  Br  Br40  1  0.25585539  0.01785918  0.68913737  1
  Br  Br41  1  0.76552002  0.98355780  0.79443738  1
  Br  Br42  1  0.50107212  0.75838444  0.00183250  1
  Br  Br43  1  0.73303756  0.51654234  0.29854025  1
  Br  Br44  1  0.24713511  0.48234161  0.19202198  1
  Br  Br45  1  0.00108848  0.74161298  0.49816132  1
  Br  Br46  1  0.26553948  0.51643060  0.70556240  1
  Br  Br47  1  0.75590298  0.48215336  0.81083839  1
