# generated using pymatgen
data_InH10IrC2(Br3N2)2
_symmetry_space_group_name_H-M   'P 1'
_cell_length_a   8.04265174
_cell_length_b   10.98293949
_cell_length_c   8.02841493
_cell_angle_alpha   90.25136071
_cell_angle_beta   89.99995260
_cell_angle_gamma   89.99651550
_symmetry_Int_Tables_number   1
_chemical_formula_structural   InH10IrC2(Br3N2)2
_chemical_formula_sum   'In2 H20 Ir2 C4 Br12 N8'
_cell_volume   709.15877943
_cell_formula_units_Z   2
loop_
 _symmetry_equiv_pos_site_id
 _symmetry_equiv_pos_as_xyz
  1  'x, y, z'
loop_
 _atom_site_type_symbol
 _atom_site_label
 _atom_site_symmetry_multiplicity
 _atom_site_fract_x
 _atom_site_fract_y
 _atom_site_fract_z
 _atom_site_occupancy
  C  C0  1  0.49471520  0.29158844  0.49656974  1
  C  C1  1  0.99476508  0.20840569  0.00343923  1
  C  C2  1  0.50550069  0.79160176  0.50408017  1
  C  C3  1  0.00544647  0.70840617  0.99589804  1
  N  N4  1  0.59842821  0.23751173  0.59778731  1
  N  N5  1  0.39436415  0.23690417  0.39213935  1
  N  N6  1  0.09851054  0.26247966  0.90226137  1
  N  N7  1  0.89440834  0.26309153  0.10787116  1
  N  N8  1  0.60697378  0.73694935  0.60690116  1
  N  N9  1  0.39998001  0.73750809  0.40422957  1
  N  N10  1  0.10692626  0.76306246  0.89310446  1
  N  N11  1  0.89989959  0.76249300  0.09573797  1
  H  H12  1  0.49144214  0.39068512  0.49967259  1
  H  H13  1  0.66803750  0.28957748  0.67707136  1
  H  H14  1  0.61729170  0.14563231  0.60002350  1
  H  H15  1  0.32181423  0.28905312  0.31619661  1
  H  H16  1  0.38019083  0.14466446  0.38416595  1
  H  H17  1  0.99146988  0.10931049  0.00029817  1
  H  H18  1  0.16811883  0.21041398  0.82297034  1
  H  H19  1  0.11739578  0.35435600  0.90006302  1
  H  H20  1  0.82183318  0.21094348  0.18378366  1
  H  H21  1  0.88024919  0.35533234  0.11586986  1
  H  H22  1  0.50951952  0.89067306  0.50122661  1
  H  H23  1  0.68681179  0.78902575  0.67590379  1
  H  H24  1  0.60935100  0.64506509  0.62565947  1
  H  H25  1  0.32407822  0.78959243  0.33165790  1
  H  H26  1  0.39174289  0.64529044  0.39023915  1
  H  H27  1  0.00947851  0.60933413  0.99873641  1
  H  H28  1  0.18678587  0.71099285  0.82410874  1
  H  H29  1  0.10929868  0.85494727  0.87436202  1
  H  H30  1  0.82399147  0.71040232  0.16828632  1
  H  H31  1  0.89164243  0.85471130  0.10973810  1
  In  In32  1  0.49786242  0.99997711  0.99720639  1
  In  In33  1  0.99787326  0.50003481  0.50281855  1
  Ir  Ir34  1  0.00028445  0.99998550  0.49819834  1
  Ir  Ir35  1  0.50027795  0.50002270  0.00180655  1
  Br  Br36  1  0.49868664  0.26951623  0.99733892  1
  Br  Br37  1  0.19212200  0.99068232  0.24720382  1
  Br  Br38  1  0.75001823  0.00809285  0.30563671  1
  Br  Br39  1  0.99864170  0.23049303  0.50270911  1
  Br  Br40  1  0.25114962  0.00990806  0.68993390  1
  Br  Br41  1  0.80830875  0.99115920  0.74898006  1
  Br  Br42  1  0.50135656  0.73053945  0.00461878  1
  Br  Br43  1  0.69211546  0.50932166  0.25280031  1
  Br  Br44  1  0.25000880  0.49193245  0.19436453  1
  Br  Br45  1  0.00140834  0.76946874  0.49534526  1
  Br  Br46  1  0.30830375  0.50884611  0.75102161  1
  Br  Br47  1  0.75113946  0.49007729  0.81006878  1
