# generated using pymatgen
data_BaCaH12C2(I3N)2
_symmetry_space_group_name_H-M   'P 1'
_cell_length_a   8.94629970
_cell_length_b   12.77814812
_cell_length_c   8.47257099
_cell_angle_alpha   88.61529002
_cell_angle_beta   90.00026495
_cell_angle_gamma   89.99455130
_symmetry_Int_Tables_number   1
_chemical_formula_structural   BaCaH12C2(I3N)2
_chemical_formula_sum   'Ba2 Ca2 H24 C4 I12 N4'
_cell_volume   968.27725739
_cell_formula_units_Z   2
loop_
 _symmetry_equiv_pos_site_id
 _symmetry_equiv_pos_as_xyz
  1  'x, y, z'
loop_
 _atom_site_type_symbol
 _atom_site_label
 _atom_site_symmetry_multiplicity
 _atom_site_fract_x
 _atom_site_fract_y
 _atom_site_fract_z
 _atom_site_occupancy
  C  C0  1  0.41081997  0.25030909  0.43704139  1
  C  C1  1  0.91089296  0.24972225  0.06302142  1
  C  C2  1  0.58921110  0.74968921  0.56302060  1
  C  C3  1  0.08921348  0.75035193  0.93702284  1
  N  N4  1  0.55760409  0.24960616  0.51946166  1
  N  N5  1  0.05767511  0.25062141  0.98059639  1
  N  N6  1  0.44242363  0.75037415  0.48061222  1
  N  N7  1  0.94243340  0.74948936  0.01944854  1
  H  H8  1  0.43044597  0.25040538  0.30928155  1
  H  H9  1  0.34946019  0.17955477  0.47310950  1
  H  H10  1  0.34893095  0.32052363  0.46961758  1
  H  H11  1  0.61889207  0.18402385  0.48692038  1
  H  H12  1  0.61926802  0.31631248  0.48764470  1
  H  H13  1  0.54460167  0.24737520  0.64211004  1
  H  H14  1  0.93052572  0.24950795  0.19078799  1
  H  H15  1  0.84911781  0.17950382  0.03028632  1
  H  H16  1  0.84941442  0.32047182  0.02712918  1
  H  H17  1  0.11949507  0.18397019  0.01236719  1
  H  H18  1  0.11880249  0.31626087  0.01318405  1
  H  H19  1  0.04467016  0.25286348  0.85794920  1
  H  H20  1  0.56960254  0.74960459  0.69078438  1
  H  H21  1  0.65112420  0.67948263  0.53044572  1
  H  H22  1  0.65054885  0.82044869  0.52693937  1
  H  H23  1  0.38110551  0.81594051  0.51316711  1
  H  H24  1  0.38078634  0.68364999  0.51240432  1
  H  H25  1  0.45542425  0.75261011  0.35796238  1
  H  H26  1  0.06959030  0.75055861  0.80925731  1
  H  H27  1  0.15100640  0.82056834  0.96975133  1
  H  H28  1  0.15067557  0.67960379  0.97293710  1
  H  H29  1  0.88065418  0.81616894  0.98772970  1
  H  H30  1  0.88125706  0.68388277  0.98682530  1
  H  H31  1  0.95544763  0.74720411  0.14209835  1
  Ca  Ca32  1  0.49975777  0.99991130  0.00011257  1
  Ca  Ca33  1  0.99995333  0.49993454  0.49971435  1
  Ba  Ba34  1  0.99976943  0.99992499  0.50013390  1
  Ba  Ba35  1  0.50012747  0.49995434  0.99964025  1
  I  I36  1  0.48154489  0.24009618  0.93449823  1
  I  I37  1  0.19235871  0.01656458  0.16091072  1
  I  I38  1  0.66595879  0.02439676  0.31782953  1
  I  I39  1  0.98155250  0.25978957  0.56549037  1
  I  I40  1  0.33363325  0.97548296  0.68235223  1
  I  I41  1  0.80722150  0.98347097  0.83935737  1
  I  I42  1  0.51839073  0.75974412  0.06558541  1
  I  I43  1  0.69249792  0.48352783  0.33902308  1
  I  I44  1  0.16633096  0.47573766  0.18208671  1
  I  I45  1  0.01842575  0.74012957  0.43447378  1
  I  I46  1  0.30736738  0.51636655  0.66059027  1
  I  I47  1  0.83401223  0.52438628  0.81758271  1
