# generated using pymatgen
data_SnH10PbC2(Br3N2)2
_symmetry_space_group_name_H-M   'P 1'
_cell_length_a   8.26491109
_cell_length_b   11.56741357
_cell_length_c   8.25677217
_cell_angle_alpha   89.97320192
_cell_angle_beta   89.99999795
_cell_angle_gamma   89.99925916
_symmetry_Int_Tables_number   1
_chemical_formula_structural   SnH10PbC2(Br3N2)2
_chemical_formula_sum   'Sn2 H20 Pb2 C4 Br12 N8'
_cell_volume   789.37742678
_cell_formula_units_Z   2
loop_
 _symmetry_equiv_pos_site_id
 _symmetry_equiv_pos_as_xyz
  1  'x, y, z'
loop_
 _atom_site_type_symbol
 _atom_site_label
 _atom_site_symmetry_multiplicity
 _atom_site_fract_x
 _atom_site_fract_y
 _atom_site_fract_z
 _atom_site_occupancy
  C  C0  1  0.49327170  0.29011491  0.49641073  1
  C  C1  1  0.99331057  0.20995694  0.00358637  1
  C  C2  1  0.50670945  0.79004262  0.50358479  1
  C  C3  1  0.00661792  0.70988307  0.99639581  1
  N  N4  1  0.59536200  0.23861917  0.59436792  1
  N  N5  1  0.39524990  0.23763573  0.39555197  1
  N  N6  1  0.09543769  0.26145915  0.90567918  1
  N  N7  1  0.89527929  0.26243130  0.10444867  1
  N  N8  1  0.60463812  0.73755482  0.60462585  1
  N  N9  1  0.40481268  0.73854753  0.40552613  1
  N  N10  1  0.10456693  0.76238456  0.89539711  1
  N  N11  1  0.90469157  0.76136399  0.09444886  1
  H  H12  1  0.48934119  0.38429343  0.49931741  1
  H  H13  1  0.66719934  0.28725911  0.66823767  1
  H  H14  1  0.60677436  0.15094283  0.60070447  1
  H  H15  1  0.31999527  0.28603582  0.32456079  1
  H  H16  1  0.39038860  0.14991434  0.38349774  1
  H  H17  1  0.98935075  0.11577961  0.00063161  1
  H  H18  1  0.16728743  0.21282716  0.83181081  1
  H  H19  1  0.10689782  0.34913447  0.89940096  1
  H  H20  1  0.81999663  0.21403038  0.17540259  1
  H  H21  1  0.89044444  0.35015031  0.11654327  1
  H  H22  1  0.51055910  0.88422434  0.50063504  1
  H  H23  1  0.67911207  0.78596552  0.67633690  1
  H  H24  1  0.61087415  0.64978650  0.61537789  1
  H  H25  1  0.33369141  0.78717259  0.33085908  1
  H  H26  1  0.39210949  0.65092004  0.40056042  1
  H  H27  1  0.01046327  0.61570101  0.99931633  1
  H  H28  1  0.17906101  0.71397644  0.82368349  1
  H  H29  1  0.11080569  0.85014751  0.88467110  1
  H  H30  1  0.83354885  0.71272786  0.16906674  1
  H  H31  1  0.89197734  0.84899566  0.09941916  1
  Sn  Sn32  1  0.49924290  0.99995067  0.99816511  1
  Sn  Sn33  1  0.99924928  0.50006577  0.50185617  1
  Pb  Pb34  1  0.00038890  0.00006857  0.49809047  1
  Pb  Pb35  1  0.50038027  0.49994707  0.00192321  1
  Br  Br36  1  0.49759781  0.24705965  0.99465412  1
  Br  Br37  1  0.21004873  0.98440661  0.20268185  1
  Br  Br38  1  0.70374247  0.01930732  0.28953754  1
  Br  Br39  1  0.99757100  0.25295851  0.50537492  1
  Br  Br40  1  0.29483553  0.01552866  0.70764434  1
  Br  Br41  1  0.79184677  0.98076853  0.79378304  1
  Br  Br42  1  0.50240698  0.75291425  0.00536101  1
  Br  Br43  1  0.71007166  0.51559315  0.29729492  1
  Br  Br44  1  0.20375674  0.48071907  0.21049571  1
  Br  Br45  1  0.00246677  0.74709812  0.49460053  1
  Br  Br46  1  0.29181102  0.51923178  0.70625946  1
  Br  Br47  1  0.79477651  0.48446651  0.79232550  1
