# generated using pymatgen
data_BaSnH10C2(Br3N2)2
_symmetry_space_group_name_H-M   'P 1'
_cell_length_a   8.34793479
_cell_length_b   12.01952561
_cell_length_c   8.39329144
_cell_angle_alpha   89.61846274
_cell_angle_beta   89.99889925
_cell_angle_gamma   89.99510240
_symmetry_Int_Tables_number   1
_chemical_formula_structural   BaSnH10C2(Br3N2)2
_chemical_formula_sum   'Ba2 Sn2 H20 C4 Br12 N8'
_cell_volume   842.14921413
_cell_formula_units_Z   2
loop_
 _symmetry_equiv_pos_site_id
 _symmetry_equiv_pos_as_xyz
  1  'x, y, z'
loop_
 _atom_site_type_symbol
 _atom_site_label
 _atom_site_symmetry_multiplicity
 _atom_site_fract_x
 _atom_site_fract_y
 _atom_site_fract_z
 _atom_site_occupancy
  C  C0  1  0.49500712  0.30367946  0.50768447  1
  C  C1  1  0.99497722  0.19638687  0.99224341  1
  C  C2  1  0.50292572  0.80413304  0.49053921  1
  C  C3  1  0.00284212  0.69580286  0.00945710  1
  N  N4  1  0.61143054  0.25643683  0.58845335  1
  N  N5  1  0.41862774  0.25734362  0.38847696  1
  N  N6  1  0.11145262  0.24363097  0.91156854  1
  N  N7  1  0.91860280  0.24267657  0.11150572  1
  N  N8  1  0.57869947  0.75745121  0.61035278  1
  N  N9  1  0.38715414  0.75696766  0.40908290  1
  N  N10  1  0.07868987  0.74256198  0.88975320  1
  N  N11  1  0.88708311  0.74294350  0.09097436  1
  H  H12  1  0.45784907  0.38708693  0.54342422  1
  H  H13  1  0.66868504  0.29939125  0.67619371  1
  H  H14  1  0.65300743  0.17924320  0.56046048  1
  H  H15  1  0.33023695  0.30111871  0.33134533  1
  H  H16  1  0.45304073  0.18215902  0.34362646  1
  H  H17  1  0.95776205  0.11302156  0.95637987  1
  H  H18  1  0.16868999  0.20071575  0.82376884  1
  H  H19  1  0.15310003  0.32077624  0.93970613  1
  H  H20  1  0.83017891  0.19890140  0.16856888  1
  H  H21  1  0.95305249  0.31781627  0.15646179  1
  H  H22  1  0.53975312  0.88787096  0.45436140  1
  H  H23  1  0.66219121  0.80231462  0.67204492  1
  H  H24  1  0.54757049  0.68031583  0.65160949  1
  H  H25  1  0.33642041  0.79852753  0.31531336  1
  H  H26  1  0.34139947  0.68124115  0.44073602  1
  H  H27  1  0.03959799  0.61201780  0.04548294  1
  H  H28  1  0.16217721  0.69771980  0.82800959  1
  H  H29  1  0.04764523  0.81975726  0.84864789  1
  H  H30  1  0.83627589  0.70130896  0.18463809  1
  H  H31  1  0.84137751  0.81871712  0.05945586  1
  Sn  Sn32  1  0.49229367  0.00169776  0.98342506  1
  Sn  Sn33  1  0.99234174  0.49831158  0.51654907  1
  Ba  Ba34  1  0.01248086  0.99852323  0.48076980  1
  Ba  Ba35  1  0.51248368  0.50147046  0.01920305  1
  Br  Br36  1  0.50710730  0.24336487  0.98656194  1
  Br  Br37  1  0.19730339  0.97595851  0.15766915  1
  Br  Br38  1  0.68384683  0.03866164  0.29610068  1
  Br  Br39  1  0.00710641  0.25663377  0.51341852  1
  Br  Br40  1  0.32542700  0.02592679  0.68776779  1
  Br  Br41  1  0.80660273  0.96169264  0.80080110  1
  Br  Br42  1  0.49111116  0.76026068  0.00708720  1
  Br  Br43  1  0.69740664  0.52404417  0.34222761  1
  Br  Br44  1  0.18387965  0.46132856  0.20387647  1
  Br  Br45  1  0.99113230  0.73973720  0.49296429  1
  Br  Br46  1  0.30661004  0.53833234  0.69920849  1
  Br  Br47  1  0.82538227  0.47408286  0.81214729  1
