# generated using pymatgen
data_TlSbH10C2(Br3N2)2
_symmetry_space_group_name_H-M   'P 1'
_cell_length_a   8.30701112
_cell_length_b   11.66087079
_cell_length_c   8.29703268
_cell_angle_alpha   89.90056374
_cell_angle_beta   89.99961282
_cell_angle_gamma   89.99964693
_symmetry_Int_Tables_number   1
_chemical_formula_structural   TlSbH10C2(Br3N2)2
_chemical_formula_sum   'Tl2 Sb2 H20 C4 Br12 N8'
_cell_volume   803.70731640
_cell_formula_units_Z   2
loop_
 _symmetry_equiv_pos_site_id
 _symmetry_equiv_pos_as_xyz
  1  'x, y, z'
loop_
 _atom_site_type_symbol
 _atom_site_label
 _atom_site_symmetry_multiplicity
 _atom_site_fract_x
 _atom_site_fract_y
 _atom_site_fract_z
 _atom_site_occupancy
  C  C0  1  0.49305553  0.29055338  0.49617368  1
  C  C1  1  0.99313047  0.20943535  0.00383309  1
  C  C2  1  0.50698650  0.79059086  0.50356923  1
  C  C3  1  0.00692310  0.70942408  0.99640004  1
  N  N4  1  0.59528414  0.23915761  0.59282818  1
  N  N5  1  0.39478434  0.23900671  0.39602940  1
  N  N6  1  0.09537092  0.26083236  0.90723713  1
  N  N7  1  0.89481886  0.26098244  0.10397994  1
  N  N8  1  0.60408690  0.73898827  0.60513429  1
  N  N9  1  0.40594635  0.73924243  0.40590457  1
  N  N10  1  0.10402724  0.76103309  0.89488389  1
  N  N11  1  0.90584572  0.76075490  0.09403878  1
  H  H12  1  0.48917887  0.38396573  0.49974166  1
  H  H13  1  0.66784880  0.28726992  0.66527386  1
  H  H14  1  0.60481200  0.15216500  0.60092193  1
  H  H15  1  0.31868799  0.28746284  0.32728647  1
  H  H16  1  0.39174841  0.15217345  0.38122662  1
  H  H17  1  0.98922998  0.11602437  0.00025968  1
  H  H18  1  0.16797494  0.21272340  0.83479961  1
  H  H19  1  0.10493917  0.34783340  0.89917041  1
  H  H20  1  0.81870774  0.21251982  0.17268519  1
  H  H21  1  0.89179811  0.34780358  0.11878847  1
  H  H22  1  0.51087077  0.88400045  0.49980710  1
  H  H23  1  0.67677521  0.78742893  0.67717330  1
  H  H24  1  0.61259135  0.65193612  0.61475847  1
  H  H25  1  0.33656871  0.78735788  0.33016753  1
  H  H26  1  0.39086983  0.65247046  0.40375708  1
  H  H27  1  0.01080815  0.61600174  0.00016760  1
  H  H28  1  0.17676320  0.71258978  0.82284226  1
  H  H29  1  0.11253662  0.84807405  0.88525638  1
  H  H30  1  0.83643675  0.71263076  0.16975293  1
  H  H31  1  0.89074154  0.84752392  0.09617877  1
  Sb  Sb32  1  0.49927951  0.99995405  0.99851345  1
  Sb  Sb33  1  0.99927549  0.50006306  0.50150348  1
  Tl  Tl34  1  0.99998586  0.00009312  0.49806492  1
  Tl  Tl35  1  0.49998072  0.49992694  0.00194945  1
  Br  Br36  1  0.49784565  0.23682064  0.99348136  1
  Br  Br37  1  0.22064016  0.98625311  0.18892481  1
  Br  Br38  1  0.68935608  0.01909977  0.28023065  1
  Br  Br39  1  0.99781996  0.26319882  0.50656646  1
  Br  Br40  1  0.30893508  0.01252152  0.71895450  1
  Br  Br41  1  0.78160914  0.98210478  0.80825880  1
  Br  Br42  1  0.50230451  0.76315505  0.00623757  1
  Br  Br43  1  0.72061988  0.51373850  0.31110216  1
  Br  Br44  1  0.18933793  0.48090775  0.21976686  1
  Br  Br45  1  0.00234699  0.73686255  0.49371454  1
  Br  Br46  1  0.28160930  0.51792190  0.69174873  1
  Br  Br47  1  0.80892485  0.48748434  0.78105948  1
