# generated using pymatgen
data_BaH10PbC2(Br3N2)2
_symmetry_space_group_name_H-M   'P 1'
_cell_length_a   8.36675059
_cell_length_b   12.12633993
_cell_length_c   8.39982582
_cell_angle_alpha   90.21164153
_cell_angle_beta   89.99767969
_cell_angle_gamma   89.99408545
_symmetry_Int_Tables_number   1
_chemical_formula_structural   BaH10PbC2(Br3N2)2
_chemical_formula_sum   'Ba2 H20 Pb2 C4 Br12 N8'
_cell_volume   852.22422706
_cell_formula_units_Z   2
loop_
 _symmetry_equiv_pos_site_id
 _symmetry_equiv_pos_as_xyz
  1  'x, y, z'
loop_
 _atom_site_type_symbol
 _atom_site_label
 _atom_site_symmetry_multiplicity
 _atom_site_fract_x
 _atom_site_fract_y
 _atom_site_fract_z
 _atom_site_occupancy
  C  C0  1  0.49716920  0.30623575  0.50899553  1
  C  C1  1  0.99717043  0.19377238  0.99094467  1
  C  C2  1  0.50415495  0.80591576  0.49211013  1
  C  C3  1  0.00407520  0.69408037  0.00789721  1
  N  N4  1  0.61247192  0.25897252  0.59009435  1
  N  N5  1  0.42079581  0.26031330  0.38964481  1
  N  N6  1  0.11253909  0.24102819  0.90993033  1
  N  N7  1  0.92078882  0.23966318  0.11032858  1
  N  N8  1  0.58090014  0.76025978  0.61124430  1
  N  N9  1  0.38842552  0.75862847  0.41158891  1
  N  N10  1  0.08089355  0.73981295  0.88887106  1
  N  N11  1  0.88833689  0.74133620  0.08847037  1
  H  H12  1  0.46141466  0.38941273  0.54484211  1
  H  H13  1  0.66448228  0.29997802  0.68304184  1
  H  H14  1  0.65690510  0.18358912  0.55854149  1
  H  H15  1  0.33739398  0.30495360  0.32818240  1
  H  H16  1  0.45102934  0.18372716  0.34862956  1
  H  H17  1  0.96136907  0.11063195  0.95499649  1
  H  H18  1  0.16454145  0.20004603  0.81694707  1
  H  H19  1  0.15701594  0.31637233  0.94158512  1
  H  H20  1  0.83733267  0.19502786  0.17171524  1
  H  H21  1  0.95104173  0.31621554  0.15143697  1
  H  H22  1  0.54023253  0.88884869  0.45637571  1
  H  H23  1  0.66863829  0.80386782  0.66846080  1
  H  H24  1  0.54785741  0.68525598  0.65560519  1
  H  H25  1  0.33127996  0.80075865  0.32323510  1
  H  H26  1  0.34769983  0.68195178  0.44011510  1
  H  H27  1  0.04009375  0.61110338  0.04349262  1
  H  H28  1  0.16864434  0.69622728  0.83161803  1
  H  H29  1  0.04790998  0.81486916  0.84463776  1
  H  H30  1  0.83111394  0.69913327  0.17670320  1
  H  H31  1  0.84766145  0.81805563  0.06008947  1
  Ba  Ba32  1  0.48917086  0.00175360  0.98231770  1
  Ba  Ba33  1  0.98927298  0.49826277  0.51765844  1
  Pb  Pb34  1  0.00750621  0.99807867  0.48431151  1
  Pb  Pb35  1  0.50755959  0.50192257  0.01564156  1
  Br  Br36  1  0.50780647  0.25823976  0.99180287  1
  Br  Br37  1  0.17400560  0.97021441  0.18083265  1
  Br  Br38  1  0.69105792  0.04083310  0.30437032  1
  Br  Br39  1  0.00774396  0.24176708  0.50817022  1
  Br  Br40  1  0.30902122  0.02824914  0.65899120  1
  Br  Br41  1  0.81795871  0.95907107  0.79865597  1
  Br  Br42  1  0.49255207  0.74570614  0.01227867  1
  Br  Br43  1  0.67414953  0.52974866  0.31906464  1
  Br  Br44  1  0.19112277  0.45915129  0.19557170  1
  Br  Br45  1  0.99259831  0.75430741  0.48777802  1
  Br  Br46  1  0.31802785  0.54098425  0.70132274  1
  Br  Br47  1  0.80908607  0.47172821  0.84096500  1
