# generated using pymatgen
data_BaHgH10C2(Br3N2)2
_symmetry_space_group_name_H-M   'P 1'
_cell_length_a   7.66866590
_cell_length_b   11.78037152
_cell_length_c   8.80286158
_cell_angle_alpha   89.82299586
_cell_angle_beta   89.99531982
_cell_angle_gamma   90.00149039
_symmetry_Int_Tables_number   1
_chemical_formula_structural   BaHgH10C2(Br3N2)2
_chemical_formula_sum   'Ba2 Hg2 H20 C4 Br12 N8'
_cell_volume   795.24437093
_cell_formula_units_Z   2
loop_
 _symmetry_equiv_pos_site_id
 _symmetry_equiv_pos_as_xyz
  1  'x, y, z'
loop_
 _atom_site_type_symbol
 _atom_site_label
 _atom_site_symmetry_multiplicity
 _atom_site_fract_x
 _atom_site_fract_y
 _atom_site_fract_z
 _atom_site_occupancy
  C  C0  1  0.47360769  0.30725766  0.50156596  1
  C  C1  1  0.97361377  0.19276031  0.99837201  1
  C  C2  1  0.53777062  0.79348439  0.50226030  1
  C  C3  1  0.03770600  0.70650779  0.99775897  1
  N  N4  1  0.56464334  0.28971726  0.62623482  1
  N  N5  1  0.48600057  0.24726589  0.37746594  1
  N  N6  1  0.06475276  0.21034374  0.87375457  1
  N  N7  1  0.98596838  0.25267898  0.12253699  1
  N  N8  1  0.54894927  0.72985381  0.62500642  1
  N  N9  1  0.42710575  0.77866074  0.39105896  1
  N  N10  1  0.04898214  0.77013839  0.87502540  1
  N  N11  1  0.92707798  0.72138645  0.10898470  1
  H  H12  1  0.38132134  0.37771933  0.50229306  1
  H  H13  1  0.54105428  0.33747556  0.72074737  1
  H  H14  1  0.66227141  0.23066712  0.63051884  1
  H  H15  1  0.42081144  0.27252412  0.28178559  1
  H  H16  1  0.56869778  0.17904992  0.36530094  1
  H  H17  1  0.88127633  0.12232668  0.99753656  1
  H  H18  1  0.04119544  0.16264727  0.77918347  1
  H  H19  1  0.16242870  0.26936775  0.86956894  1
  H  H20  1  0.92068458  0.22738792  0.21816166  1
  H  H21  1  0.06870165  0.32087030  0.13479413  1
  H  H22  1  0.62965639  0.86368906  0.49101061  1
  H  H23  1  0.63370833  0.75282067  0.70843985  1
  H  H24  1  0.46547663  0.66389346  0.64951522  1
  H  H25  1  0.42402071  0.83588503  0.30377317  1
  H  H26  1  0.32740228  0.72126960  0.39548617  1
  H  H27  1  0.12948942  0.63623978  0.00898298  1
  H  H28  1  0.13369496  0.74712270  0.79157135  1
  H  H29  1  0.96556434  0.83612793  0.85051909  1
  H  H30  1  0.92388565  0.66415763  0.19625726  1
  H  H31  1  0.82750033  0.77887432  0.10460678  1
  Ba  Ba32  1  0.46065138  0.00606614  0.94774409  1
  Ba  Ba33  1  0.96066246  0.49390462  0.55223866  1
  Hg  Hg34  1  0.00226362  0.99126140  0.45476390  1
  Hg  Hg35  1  0.50224656  0.50874006  0.04527223  1
  Br  Br36  1  0.47025219  0.26813705  0.00601329  1
  Br  Br37  1  0.16610801  0.97031847  0.17955654  1
  Br  Br38  1  0.69859875  0.01099907  0.26356120  1
  Br  Br39  1  0.97015309  0.23183563  0.49399405  1
  Br  Br40  1  0.30385989  0.01891997  0.62073443  1
  Br  Br41  1  0.80010343  0.98710188  0.74295256  1
  Br  Br42  1  0.50573427  0.74527348  0.00575533  1
  Br  Br43  1  0.66611498  0.52968970  0.32047348  1
  Br  Br44  1  0.19858398  0.48894741  0.23638369  1
  Br  Br45  1  0.00578810  0.75470616  0.49427328  1
  Br  Br46  1  0.30005763  0.51287565  0.75705244  1
  Br  Br47  1  0.80382075  0.48111473  0.87925746  1
