# generated using pymatgen
data_BaH10PtC2(Br3N2)2
_symmetry_space_group_name_H-M   'P 1'
_cell_length_a   8.12038235
_cell_length_b   10.82335734
_cell_length_c   9.06596130
_cell_angle_alpha   92.74763428
_cell_angle_beta   90.01363622
_cell_angle_gamma   89.98380151
_symmetry_Int_Tables_number   1
_chemical_formula_structural   BaH10PtC2(Br3N2)2
_chemical_formula_sum   'Ba2 H20 Pt2 C4 Br12 N8'
_cell_volume   795.88943861
_cell_formula_units_Z   2
loop_
 _symmetry_equiv_pos_site_id
 _symmetry_equiv_pos_as_xyz
  1  'x, y, z'
loop_
 _atom_site_type_symbol
 _atom_site_label
 _atom_site_symmetry_multiplicity
 _atom_site_fract_x
 _atom_site_fract_y
 _atom_site_fract_z
 _atom_site_occupancy
  C  C0  1  0.49303372  0.29160392  0.49500336  1
  C  C1  1  0.99331207  0.20843658  0.00495740  1
  C  C2  1  0.52918875  0.79524102  0.50102697  1
  C  C3  1  0.02897726  0.70464992  0.99883962  1
  N  N4  1  0.58830425  0.23563457  0.58904643  1
  N  N5  1  0.42925522  0.24139038  0.37419969  1
  N  N6  1  0.08880725  0.26438413  0.91113240  1
  N  N7  1  0.92995752  0.25848845  0.12600464  1
  N  N8  1  0.58332678  0.74660641  0.62386526  1
  N  N9  1  0.41111841  0.74981177  0.41731155  1
  N  N10  1  0.08313152  0.75326775  0.87603199  1
  N  N11  1  0.91090824  0.75010214  0.08250137  1
  H  H12  1  0.46161223  0.38821155  0.52220887  1
  H  H13  1  0.62880927  0.28368601  0.68180096  1
  H  H14  1  0.63792070  0.15037758  0.56447744  1
  H  H15  1  0.35881314  0.29560161  0.30906329  1
  H  H16  1  0.43802053  0.14944212  0.34215756  1
  H  H17  1  0.96136188  0.11199949  0.97731784  1
  H  H18  1  0.12878391  0.21655396  0.81804261  1
  H  H19  1  0.13874169  0.34947857  0.93596360  1
  H  H20  1  0.85924199  0.20433840  0.19093480  1
  H  H21  1  0.93915490  0.35034609  0.15835138  1
  H  H22  1  0.59003861  0.87919415  0.46597088  1
  H  H23  1  0.66922288  0.79656033  0.68567130  1
  H  H24  1  0.52071922  0.67511359  0.66971451  1
  H  H25  1  0.37000999  0.79997809  0.33068381  1
  H  H26  1  0.34800102  0.67209333  0.44401835  1
  H  H27  1  0.08982802  0.62066074  0.03390091  1
  H  H28  1  0.16927852  0.70343547  0.81438562  1
  H  H29  1  0.02069925  0.82491292  0.83026186  1
  H  H30  1  0.86979360  0.69992426  0.16909287  1
  H  H31  1  0.84780958  0.82786673  0.05580599  1
  Ba  Ba32  1  0.42311722  0.96508182  0.92506438  1
  Ba  Ba33  1  0.92306494  0.53530306  0.57510317  1
  Pt  Pt34  1  0.98660459  0.02836289  0.48631394  1
  Pt  Pt35  1  0.48679494  0.47170894  0.01376163  1
  Br  Br36  1  0.50731490  0.24538290  0.99811094  1
  Br  Br37  1  0.26492687  0.98254923  0.22099010  1
  Br  Br38  1  0.75165271  0.03097223  0.31548330  1
  Br  Br39  1  0.00686674  0.25470623  0.50267860  1
  Br  Br40  1  0.23359230  0.02655751  0.64505274  1
  Br  Br41  1  0.78845074  0.95903984  0.82910760  1
  Br  Br42  1  0.48558629  0.69853848  0.03462481  1
  Br  Br43  1  0.76530278  0.51737254  0.27892806  1
  Br  Br44  1  0.25198248  0.46937420  0.18468481  1
  Br  Br45  1  0.98550044  0.80156113  0.46488970  1
  Br  Br46  1  0.28853353  0.54102695  0.67074545  1
  Br  Br47  1  0.73354593  0.47313297  0.85482043  1
