# generated using pymatgen
data_BaH10OsC2(Br3N2)2
_symmetry_space_group_name_H-M   'P 1'
_cell_length_a   8.05529422
_cell_length_b   11.19607306
_cell_length_c   8.04314428
_cell_angle_alpha   90.11127975
_cell_angle_beta   89.99984616
_cell_angle_gamma   89.99786394
_symmetry_Int_Tables_number   1
_chemical_formula_structural   BaH10OsC2(Br3N2)2
_chemical_formula_sum   'Ba2 H20 Os2 C4 Br12 N8'
_cell_volume   725.39101415
_cell_formula_units_Z   2
loop_
 _symmetry_equiv_pos_site_id
 _symmetry_equiv_pos_as_xyz
  1  'x, y, z'
loop_
 _atom_site_type_symbol
 _atom_site_label
 _atom_site_symmetry_multiplicity
 _atom_site_fract_x
 _atom_site_fract_y
 _atom_site_fract_z
 _atom_site_occupancy
  C  C0  1  0.49422580  0.29106277  0.49647323  1
  C  C1  1  0.99427568  0.20892990  0.00353665  1
  C  C2  1  0.50605117  0.79108374  0.50399864  1
  C  C3  1  0.00600364  0.70892254  0.99597773  1
  N  N4  1  0.59867776  0.23776629  0.59682764  1
  N  N5  1  0.39348222  0.23741213  0.39271339  1
  N  N6  1  0.09875967  0.26222578  0.90322136  1
  N  N7  1  0.89352454  0.26258152  0.10729800  1
  N  N8  1  0.60669761  0.73750888  0.60784314  1
  N  N9  1  0.40130475  0.73774255  0.40394951  1
  N  N10  1  0.10665943  0.76250548  0.89216195  1
  N  N11  1  0.90122759  0.76225651  0.09601712  1
  H  H12  1  0.49076566  0.38835994  0.49979150  1
  H  H13  1  0.66665274  0.28826696  0.67783768  1
  H  H14  1  0.62109557  0.14800064  0.59463500  1
  H  H15  1  0.32227200  0.28837311  0.31521032  1
  H  H16  1  0.37593670  0.14705424  0.38898511  1
  H  H17  1  0.99079234  0.11163445  0.00018554  1
  H  H18  1  0.16673508  0.21172650  0.82220583  1
  H  H19  1  0.12120131  0.35198732  0.90545094  1
  H  H20  1  0.82228878  0.21161921  0.18477217  1
  H  H21  1  0.87599516  0.35293990  0.11104541  1
  H  H22  1  0.51027860  0.88835699  0.50043388  1
  H  H23  1  0.68815618  0.78829210  0.67503442  1
  H  H24  1  0.60474404  0.64776523  0.63074007  1
  H  H25  1  0.32373015  0.78837607  0.33258883  1
  H  H26  1  0.39719575  0.64734066  0.38732857  1
  H  H27  1  0.01023869  0.61164930  0.99953168  1
  H  H28  1  0.18813945  0.71172941  0.82497777  1
  H  H29  1  0.10470383  0.85225109  0.86928148  1
  H  H30  1  0.82364137  0.71161406  0.16734865  1
  H  H31  1  0.89709789  0.85265617  0.11264500  1
  Ba  Ba32  1  0.49848122  0.99998548  0.99755832  1
  Ba  Ba33  1  0.99848090  0.50002728  0.50245678  1
  Os  Os34  1  0.99992623  0.00000073  0.49827749  1
  Os  Os35  1  0.49991953  0.50000916  0.00172969  1
  Br  Br36  1  0.49827713  0.27376805  0.99633420  1
  Br  Br37  1  0.18823935  0.99175561  0.24254146  1
  Br  Br38  1  0.74457152  0.00915136  0.30907819  1
  Br  Br39  1  0.99823476  0.22624321  0.50371577  1
  Br  Br40  1  0.25595602  0.00929224  0.68579616  1
  Br  Br41  1  0.81194563  0.98969392  0.75456307  1
  Br  Br42  1  0.50135433  0.72626904  0.00558536  1
  Br  Br43  1  0.68822918  0.50825052  0.25746904  1
  Br  Br44  1  0.24455428  0.49086602  0.19091829  1
  Br  Br45  1  0.00140003  0.77374156  0.49438387  1
  Br  Br46  1  0.31195005  0.51031354  0.74543709  1
  Br  Br47  1  0.75594804  0.49070382  0.81421177  1
