# generated using pymatgen
data_HfHgH10C2(Br3N2)2
_symmetry_space_group_name_H-M   'P 1'
_cell_length_a   7.30225016
_cell_length_b   11.61944845
_cell_length_c   9.23058680
_cell_angle_alpha   87.38153453
_cell_angle_beta   90.00055828
_cell_angle_gamma   90.00606764
_symmetry_Int_Tables_number   1
_chemical_formula_structural   HfHgH10C2(Br3N2)2
_chemical_formula_sum   'Hf2 Hg2 H20 C4 Br12 N8'
_cell_volume   782.38018713
_cell_formula_units_Z   2
loop_
 _symmetry_equiv_pos_site_id
 _symmetry_equiv_pos_as_xyz
  1  'x, y, z'
loop_
 _atom_site_type_symbol
 _atom_site_label
 _atom_site_symmetry_multiplicity
 _atom_site_fract_x
 _atom_site_fract_y
 _atom_site_fract_z
 _atom_site_occupancy
  C  C0  1  0.46745238  0.27695709  0.47584458  1
  C  C1  1  0.96752721  0.22303383  0.02412797  1
  C  C2  1  0.53770390  0.80092138  0.49450336  1
  C  C3  1  0.03764200  0.69908679  0.00552102  1
  N  N4  1  0.54188231  0.25114412  0.60219765  1
  N  N5  1  0.47363389  0.21302234  0.36163892  1
  N  N6  1  0.04199326  0.24890990  0.89780303  1
  N  N7  1  0.97366860  0.28691761  0.13838233  1
  N  N8  1  0.53930868  0.73556993  0.61390077  1
  N  N9  1  0.44609208  0.77868964  0.37654190  1
  N  N10  1  0.03929383  0.76443288  0.88611845  1
  N  N11  1  0.94604394  0.72133680  0.12347714  1
  H  H12  1  0.39385460  0.35859866  0.46427678  1
  H  H13  1  0.52956680  0.30793144  0.68280885  1
  H  H14  1  0.61460303  0.17750390  0.62577237  1
  H  H15  1  0.41574542  0.24272117  0.26666358  1
  H  H16  1  0.54155080  0.13618640  0.35818790  1
  H  H17  1  0.89393265  0.14137796  0.03562768  1
  H  H18  1  0.02968973  0.19216098  0.81714737  1
  H  H19  1  0.11470808  0.32257135  0.87428441  1
  H  H20  1  0.91574113  0.25716765  0.23332349  1
  H  H21  1  0.04157090  0.36376513  0.14190270  1
  H  H22  1  0.62064014  0.87926404  0.49227038  1
  H  H23  1  0.60987154  0.76081836  0.70232439  1
  H  H24  1  0.46749816  0.65969619  0.62613505  1
  H  H25  1  0.45511344  0.83472202  0.28830754  1
  H  H26  1  0.36515116  0.70727901  0.36926973  1
  H  H27  1  0.12052474  0.62073370  0.00776130  1
  H  H28  1  0.10984380  0.73917154  0.79769718  1
  H  H29  1  0.96753135  0.84031555  0.87387412  1
  H  H30  1  0.95501471  0.66530523  0.21171154  1
  H  H31  1  0.86515428  0.79275953  0.13074221  1
  Hf  Hf32  1  0.48291863  0.98972772  0.95440519  1
  Hf  Hf33  1  0.98286936  0.51026869  0.54558685  1
  Hg  Hg34  1  0.00642255  0.01854197  0.44262138  1
  Hg  Hg35  1  0.50633485  0.48145121  0.05737071  1
  Br  Br36  1  0.49502679  0.21220253  0.96943502  1
  Br  Br37  1  0.19692521  0.97710611  0.11305628  1
  Br  Br38  1  0.69024460  0.98605394  0.19481159  1
  Br  Br39  1  0.99490700  0.28779258  0.53055695  1
  Br  Br40  1  0.30267907  0.99757458  0.71787893  1
  Br  Br41  1  0.78670190  0.00384095  0.79322273  1
  Br  Br42  1  0.51951778  0.76738373  0.97122351  1
  Br  Br43  1  0.69687372  0.52290464  0.38694256  1
  Br  Br44  1  0.19018002  0.51395592  0.30517880  1
  Br  Br45  1  0.01955149  0.73261320  0.52879212  1
  Br  Br46  1  0.28666895  0.49615667  0.70675407  1
  Br  Br47  1  0.80264887  0.50241638  0.78212236  1
