# generated using pymatgen
data_HfH10PtC2(Br3N2)2
_symmetry_space_group_name_H-M   'P 1'
_cell_length_a   8.42817170
_cell_length_b   9.97876871
_cell_length_c   8.41803013
_cell_angle_alpha   89.62384333
_cell_angle_beta   89.99986427
_cell_angle_gamma   90.00256891
_symmetry_Int_Tables_number   1
_chemical_formula_structural   HfH10PtC2(Br3N2)2
_chemical_formula_sum   'Hf2 H20 Pt2 C4 Br12 N8'
_cell_volume   707.96444416
_cell_formula_units_Z   2
loop_
 _symmetry_equiv_pos_site_id
 _symmetry_equiv_pos_as_xyz
  1  'x, y, z'
loop_
 _atom_site_type_symbol
 _atom_site_label
 _atom_site_symmetry_multiplicity
 _atom_site_fract_x
 _atom_site_fract_y
 _atom_site_fract_z
 _atom_site_occupancy
  C  C0  1  0.49561172  0.29363734  0.49575149  1
  C  C1  1  0.99564578  0.20637544  0.00426829  1
  C  C2  1  0.50502082  0.79361230  0.50334893  1
  C  C3  1  0.00498464  0.70638989  0.99663847  1
  N  N4  1  0.59929617  0.23599466  0.58980621  1
  N  N5  1  0.39608168  0.23376477  0.40020593  1
  N  N6  1  0.09937082  0.26401998  0.91022789  1
  N  N7  1  0.89613055  0.26622404  0.09979264  1
  N  N8  1  0.59816910  0.73382918  0.60614163  1
  N  N9  1  0.40739579  0.73591161  0.40396426  1
  N  N10  1  0.09812574  0.76617437  0.89387167  1
  N  N11  1  0.90731704  0.76407629  0.09600867  1
  H  H12  1  0.49129998  0.40246676  0.49744321  1
  H  H13  1  0.66895048  0.29496725  0.66043244  1
  H  H14  1  0.61566904  0.13501897  0.59865125  1
  H  H15  1  0.32229249  0.29191524  0.33188731  1
  H  H16  1  0.38662897  0.13252175  0.38802904  1
  H  H17  1  0.99132441  0.09753810  0.00253992  1
  H  H18  1  0.16901772  0.20505469  0.83960547  1
  H  H19  1  0.11577035  0.36499527  0.90142270  1
  H  H20  1  0.82231348  0.20807505  0.16810318  1
  H  H21  1  0.88669185  0.36747988  0.11200501  1
  H  H22  1  0.50987309  0.90242798  0.49977702  1
  H  H23  1  0.66977570  0.79189960  0.67588004  1
  H  H24  1  0.60441156  0.63270951  0.62290841  1
  H  H25  1  0.33953442  0.79499720  0.33076053  1
  H  H26  1  0.39243355  0.63487340  0.39505399  1
  H  H27  1  0.00985094  0.59757103  0.00023566  1
  H  H28  1  0.16975941  0.70811858  0.82413972  1
  H  H29  1  0.10435217  0.86730217  0.87708263  1
  H  H30  1  0.83946198  0.70498296  0.16920056  1
  H  H31  1  0.89233381  0.86510804  0.10489217  1
  Hf  Hf32  1  0.49872693  0.00004122  0.99776290  1
  Hf  Hf33  1  0.99873250  0.49996338  0.50224509  1
  Pt  Pt34  1  0.99858943  0.99993256  0.50209576  1
  Pt  Pt35  1  0.49857758  0.50007066  0.99791224  1
  Br  Br36  1  0.49892537  0.26005071  0.99805914  1
  Br  Br37  1  0.24625490  0.98582061  0.18058137  1
  Br  Br38  1  0.68306703  0.01119641  0.25044527  1
  Br  Br39  1  0.99888323  0.23995340  0.50198048  1
  Br  Br40  1  0.31816097  0.01420927  0.74379319  1
  Br  Br41  1  0.75248642  0.98898158  0.81531528  1
  Br  Br42  1  0.50135606  0.74001802  0.00176436  1
  Br  Br43  1  0.74625643  0.51415979  0.31942102  1
  Br  Br44  1  0.18306324  0.48880521  0.24955572  1
  Br  Br45  1  0.00139178  0.75998596  0.49820059  1
  Br  Br46  1  0.25249057  0.51104602  0.68468592  1
  Br  Br47  1  0.81816165  0.48579491  0.75621006  1
