# generated using pymatgen
data_TlH10IrC2(Br3N2)2
_symmetry_space_group_name_H-M   'P 1'
_cell_length_a   8.08052273
_cell_length_b   11.12296332
_cell_length_c   8.06761196
_cell_angle_alpha   89.74642118
_cell_angle_beta   89.99983294
_cell_angle_gamma   90.00084988
_symmetry_Int_Tables_number   1
_chemical_formula_structural   TlH10IrC2(Br3N2)2
_chemical_formula_sum   'Tl2 H20 Ir2 C4 Br12 N8'
_cell_volume   725.10468112
_cell_formula_units_Z   2
loop_
 _symmetry_equiv_pos_site_id
 _symmetry_equiv_pos_as_xyz
  1  'x, y, z'
loop_
 _atom_site_type_symbol
 _atom_site_label
 _atom_site_symmetry_multiplicity
 _atom_site_fract_x
 _atom_site_fract_y
 _atom_site_fract_z
 _atom_site_occupancy
  C  C0  1  0.49439686  0.29139257  0.49572917  1
  C  C1  1  0.99444086  0.20860269  0.00428521  1
  C  C2  1  0.50544666  0.79142540  0.50317654  1
  C  C3  1  0.00539223  0.70857852  0.99681947  1
  N  N4  1  0.59927955  0.23777859  0.59527018  1
  N  N5  1  0.39316035  0.23715815  0.39379087  1
  N  N6  1  0.09934533  0.26222291  0.90476661  1
  N  N7  1  0.89319851  0.26283038  0.10621989  1
  N  N8  1  0.60515856  0.73729624  0.60733405  1
  N  N9  1  0.40250059  0.73770339  0.40235298  1
  N  N10  1  0.10511042  0.76271842  0.89266531  1
  N  N11  1  0.90241914  0.76229552  0.09761812  1
  H  H12  1  0.49083832  0.38920468  0.49804761  1
  H  H13  1  0.67594436  0.28878747  0.66683231  1
  H  H14  1  0.60600225  0.14668000  0.60987011  1
  H  H15  1  0.31305377  0.28811197  0.32521205  1
  H  H16  1  0.39153430  0.14636780  0.37533689  1
  H  H17  1  0.99087366  0.11079144  0.00194665  1
  H  H18  1  0.17601511  0.21121487  0.83320928  1
  H  H19  1  0.10608451  0.35332166  0.89018694  1
  H  H20  1  0.81307388  0.21187377  0.17477721  1
  H  H21  1  0.89157753  0.35361956  0.12468717  1
  H  H22  1  0.50857832  0.88924846  0.49999845  1
  H  H23  1  0.67687577  0.78838297  0.68386004  1
  H  H24  1  0.61949693  0.64616082  0.61430448  1
  H  H25  1  0.33349649  0.78860823  0.32258700  1
  H  H26  1  0.38356445  0.64695884  0.40133014  1
  H  H27  1  0.00854760  0.61075854  1.00000729  1
  H  H28  1  0.17684837  0.71163980  0.81615738  1
  H  H29  1  0.11942678  0.85385485  0.88569519  1
  H  H30  1  0.83341391  0.71138284  0.17738049  1
  H  H31  1  0.88346043  0.85303506  0.09862991  1
  Ir  Ir32  1  0.49987385  0.00001244  0.99814736  1
  Ir  Ir33  1  0.99987304  0.49999540  0.50185611  1
  Tl  Tl34  1  0.00147967  0.00005197  0.49717384  1
  Tl  Tl35  1  0.50148217  0.49995836  0.00282327  1
  Br  Br36  1  0.49829388  0.22609525  0.99478293  1
  Br  Br37  1  0.25004648  0.99075039  0.18639877  1
  Br  Br38  1  0.68825106  0.00907168  0.24813993  1
  Br  Br39  1  0.99825727  0.27391298  0.50525777  1
  Br  Br40  1  0.31148181  0.00805390  0.74814329  1
  Br  Br41  1  0.74941518  0.99225607  0.80915422  1
  Br  Br42  1  0.50189312  0.77393579  0.00288431  1
  Br  Br43  1  0.75004073  0.50924521  0.31360901  1
  Br  Br44  1  0.18824896  0.49092461  0.25186095  1
  Br  Br45  1  0.00193694  0.72607252  0.49707552  1
  Br  Br46  1  0.24941011  0.50775878  0.69085182  1
  Br  Br47  1  0.81147925  0.49196121  0.75186066  1
