# generated using pymatgen
data_CaSnH12C2(I3N)2
_symmetry_space_group_name_H-M   'P 1'
_cell_length_a   8.54735012
_cell_length_b   12.39441110
_cell_length_c   8.42945848
_cell_angle_alpha   89.86878521
_cell_angle_beta   90.00859167
_cell_angle_gamma   89.99938237
_symmetry_Int_Tables_number   1
_chemical_formula_structural   CaSnH12C2(I3N)2
_chemical_formula_sum   'Ca2 Sn2 H24 C4 I12 N4'
_cell_volume   893.00917823
_cell_formula_units_Z   2
loop_
 _symmetry_equiv_pos_site_id
 _symmetry_equiv_pos_as_xyz
  1  'x, y, z'
loop_
 _atom_site_type_symbol
 _atom_site_label
 _atom_site_symmetry_multiplicity
 _atom_site_fract_x
 _atom_site_fract_y
 _atom_site_fract_z
 _atom_site_occupancy
  C  C0  1  0.39543424  0.25010919  0.41507839  1
  C  C1  1  0.89674338  0.25013300  0.08618020  1
  C  C2  1  0.60456215  0.74989365  0.58493752  1
  C  C3  1  0.10326397  0.74986713  0.91383444  1
  N  N4  1  0.53465022  0.24993411  0.52036194  1
  N  N5  1  0.03521118  0.25012309  0.97995565  1
  N  N6  1  0.46534615  0.75007051  0.47965311  1
  N  N7  1  0.96479814  0.74987401  0.02006143  1
  H  H8  1  0.43520279  0.25018277  0.29151890  1
  H  H9  1  0.32634367  0.17758474  0.43893879  1
  H  H10  1  0.32656262  0.32266499  0.43879416  1
  H  H11  1  0.60283484  0.18203476  0.49793015  1
  H  H12  1  0.60302185  0.31789056  0.49788349  1
  H  H13  1  0.50458222  0.24981608  0.64050216  1
  H  H14  1  0.93739204  0.25010708  0.20944879  1
  H  H15  1  0.82757427  0.17761016  0.06307346  1
  H  H16  1  0.82762119  0.32271137  0.06273508  1
  H  H17  1  0.10362017  0.18212433  0.00209840  1
  H  H18  1  0.10367122  0.31798665  0.00191741  1
  H  H19  1  0.00441755  0.25022526  0.86002505  1
  H  H20  1  0.56479541  0.74982143  0.70849639  1
  H  H21  1  0.67343370  0.67733727  0.56122206  1
  H  H22  1  0.67365379  0.82241748  0.56107526  1
  H  H23  1  0.39716172  0.81796776  0.50208698  1
  H  H24  1  0.39697428  0.68211179  0.50213321  1
  H  H25  1  0.49541319  0.75018737  0.35951415  1
  H  H26  1  0.06261406  0.74989538  0.79056608  1
  H  H27  1  0.17243389  0.82238965  0.93694383  1
  H  H28  1  0.17238699  0.67728846  0.93727479  1
  H  H29  1  0.89638649  0.81787184  0.99792105  1
  H  H30  1  0.89634003  0.68200972  0.99809883  1
  H  H31  1  0.99559357  0.74977142  0.13999129  1
  Ca  Ca32  1  0.50000155  0.00001026  0.00000807  1
  Ca  Ca33  1  0.99998779  0.50000142  0.49998996  1
  Sn  Sn34  1  0.00000153  0.00000254  0.50001212  1
  Sn  Sn35  1  0.49999682  0.50001245  0.99998838  1
  I  I36  1  0.47148443  0.24857152  0.93917183  1
  I  I37  1  0.17977616  0.01479995  0.17302719  1
  I  I38  1  0.67543096  0.01590817  0.32306689  1
  I  I39  1  0.97089023  0.25144403  0.56142238  1
  I  I40  1  0.32458022  0.98410029  0.67694696  1
  I  I41  1  0.82023001  0.98519936  0.82699173  1
  I  I42  1  0.52852124  0.75144696  0.06084210  1
  I  I43  1  0.67973843  0.48500846  0.32692272  1
  I  I44  1  0.17553446  0.48431636  0.17696963  1
  I  I45  1  0.02910636  0.74856069  0.43859416  1
  I  I46  1  0.32024018  0.51499361  0.67306359  1
  I  I47  1  0.82446237  0.51568914  0.82302645  1
