# generated using pymatgen
data_H10PtPbC2(Br3N2)2
_symmetry_space_group_name_H-M   'P 1'
_cell_length_a   8.15405049
_cell_length_b   10.50273158
_cell_length_c   8.74862294
_cell_angle_alpha   91.54491846
_cell_angle_beta   90.00441122
_cell_angle_gamma   90.00014095
_symmetry_Int_Tables_number   1
_chemical_formula_structural   H10PtPbC2(Br3N2)2
_chemical_formula_sum   'H20 Pt2 Pb2 C4 Br12 N8'
_cell_volume   748.95799945
_cell_formula_units_Z   2
loop_
 _symmetry_equiv_pos_site_id
 _symmetry_equiv_pos_as_xyz
  1  'x, y, z'
loop_
 _atom_site_type_symbol
 _atom_site_label
 _atom_site_symmetry_multiplicity
 _atom_site_fract_x
 _atom_site_fract_y
 _atom_site_fract_z
 _atom_site_occupancy
  C  C0  1  0.50131605  0.29254795  0.49025282  1
  C  C1  1  1.00149926  0.20742026  0.00976240  1
  C  C2  1  0.51862914  0.78908725  0.52597491  1
  C  C3  1  0.01852459  0.71089101  0.97400114  1
  N  N4  1  0.56690873  0.24482882  0.61403484  1
  N  N5  1  0.39495661  0.23488212  0.40060757  1
  N  N6  1  0.06719831  0.25526758  0.88612282  1
  N  N7  1  0.89553934  0.26517230  0.09974095  1
  N  N8  1  0.61202403  0.72274584  0.61735883  1
  N  N9  1  0.44290833  0.74543732  0.40385314  1
  N  N10  1  0.11172141  0.77721789  0.88244927  1
  N  N11  1  0.94257647  0.75466223  0.09592842  1
  H  H12  1  0.54127469  0.38733557  0.45762699  1
  H  H13  1  0.64835169  0.29932594  0.67691325  1
  H  H14  1  0.52571127  0.16144519  0.65816771  1
  H  H15  1  0.34776531  0.28316468  0.31037050  1
  H  H16  1  0.35165373  0.14546009  0.42014087  1
  H  H17  1  0.04100904  0.11241921  0.04199140  1
  H  H18  1  0.14827083  0.20066124  0.82296533  1
  H  H19  1  0.02622995  0.33881864  0.84224024  1
  H  H20  1  0.84823826  0.21678032  0.18983725  1
  H  H21  1  0.85269548  0.35480432  0.08069841  1
  H  H22  1  0.49916727  0.88919593  0.55759338  1
  H  H23  1  0.66026690  0.76702010  0.71253434  1
  H  H24  1  0.64786775  0.63122678  0.59347550  1
  H  H25  1  0.37416143  0.80642781  0.34020884  1
  H  H26  1  0.44659334  0.65238091  0.36651721  1
  H  H27  1  -0.00055661  0.61068558  0.94269696  1
  H  H28  1  0.16027325  0.73280704  0.78751632  1
  H  H29  1  0.14732488  0.86884136  0.90611747  1
  H  H30  1  0.87397391  0.69365537  0.15969580  1
  H  H31  1  0.94589338  0.84778564  0.13299115  1
  Pt  Pt32  1  0.48434852  0.97845509  0.01073251  1
  Pt  Pt33  1  0.98441005  0.52153942  0.48921363  1
  Pb  Pb34  1  0.92494814  0.01550127  0.56622253  1
  Pb  Pb35  1  0.42512298  0.48419489  0.93366760  1
  Br  Br36  1  0.47816552  0.21297762  0.02008788  1
  Br  Br37  1  0.25110770  0.97109724  0.18949947  1
  Br  Br38  1  0.75623899  0.00774650  0.29019126  1
  Br  Br39  1  0.97794628  0.28700564  0.48041578  1
  Br  Br40  1  0.26530048  0.02727581  0.67176168  1
  Br  Br41  1  0.73136122  0.98566033  0.84669894  1
  Br  Br42  1  0.52825475  0.74744205  0.02325319  1
  Br  Br43  1  0.75121921  0.52880664  0.31033343  1
  Br  Br44  1  0.25630894  0.49229235  0.20967494  1
  Br  Br45  1  0.02845895  0.75250936  0.47633041  1
  Br  Br46  1  0.23140105  0.51446536  0.65329483  1
  Br  Br47  1  0.76545856  0.47269109  0.82834063  1
