# generated using pymatgen
data_HgH10PbC2(Br3N2)2
_symmetry_space_group_name_H-M   'P 1'
_cell_length_a   8.23190248
_cell_length_b   11.19639115
_cell_length_c   8.22225874
_cell_angle_alpha   89.96597179
_cell_angle_beta   90.00007764
_cell_angle_gamma   89.99939296
_symmetry_Int_Tables_number   1
_chemical_formula_structural   HgH10PbC2(Br3N2)2
_chemical_formula_sum   'Hg2 H20 Pb2 C4 Br12 N8'
_cell_volume   757.82572191
_cell_formula_units_Z   2
loop_
 _symmetry_equiv_pos_site_id
 _symmetry_equiv_pos_as_xyz
  1  'x, y, z'
loop_
 _atom_site_type_symbol
 _atom_site_label
 _atom_site_symmetry_multiplicity
 _atom_site_fract_x
 _atom_site_fract_y
 _atom_site_fract_z
 _atom_site_occupancy
  C  C0  1  0.49361458  0.29095572  0.49610502  1
  C  C1  1  0.99366815  0.20903555  0.00390667  1
  C  C2  1  0.50626181  0.79096227  0.50382640  1
  C  C3  1  0.00620588  0.70904291  0.99615000  1
  N  N4  1  0.59623946  0.23816694  0.59460919  1
  N  N5  1  0.39506373  0.23753476  0.39423813  1
  N  N6  1  0.09631564  0.26182320  0.90544433  1
  N  N7  1  0.89509764  0.26245666  0.10577254  1
  N  N8  1  0.60511293  0.73755473  0.60544969  1
  N  N9  1  0.40357930  0.73814434  0.40542985  1
  N  N10  1  0.10506662  0.76245921  0.89455239  1
  N  N11  1  0.90349077  0.76185370  0.09453015  1
  H  H12  1  0.48948083  0.38817774  0.49950826  1
  H  H13  1  0.66860568  0.28959501  0.66734235  1
  H  H14  1  0.60734857  0.14766772  0.60370705  1
  H  H15  1  0.31931693  0.28904298  0.32481874  1
  H  H16  1  0.39051501  0.14717120  0.37860688  1
  H  H17  1  0.98951543  0.11181373  0.00048177  1
  H  H18  1  0.16869552  0.21039686  0.83271610  1
  H  H19  1  0.10745761  0.35232353  0.89638127  1
  H  H20  1  0.81932991  0.21094726  0.17516273  1
  H  H21  1  0.89056252  0.35281808  0.12141686  1
  H  H22  1  0.51008619  0.88819284  0.50051581  1
  H  H23  1  0.67814053  0.78912982  0.67756145  1
  H  H24  1  0.61484454  0.64700837  0.61607847  1
  H  H25  1  0.33380182  0.78952124  0.33005466  1
  H  H26  1  0.38789782  0.64783139  0.40110743  1
  H  H27  1  0.01004207  0.61181269  0.99945511  1
  H  H28  1  0.17812071  0.71089182  0.82245349  1
  H  H29  1  0.11479355  0.85300606  0.88393635  1
  H  H30  1  0.83370609  0.71046882  0.16988646  1
  H  H31  1  0.88778843  0.85216499  0.09884723  1
  Hg  Hg32  1  0.49982748  0.99994170  0.99720408  1
  Hg  Hg33  1  0.99983290  0.50007638  0.50282149  1
  Pb  Pb34  1  0.00086796  0.00008535  0.49733937  1
  Pb  Pb35  1  0.50086550  0.49993301  0.00267312  1
  Br  Br36  1  0.49805659  0.23788720  0.99427844  1
  Br  Br37  1  0.21296669  0.98357360  0.20697131  1
  Br  Br38  1  0.70779607  0.01809654  0.28609609  1
  Br  Br39  1  0.99801566  0.26212965  0.50576736  1
  Br  Br40  1  0.29070975  0.01593859  0.71136019  1
  Br  Br41  1  0.78760756  0.98243088  0.78985895  1
  Br  Br42  1  0.50230594  0.76209731  0.00546188  1
  Br  Br43  1  0.71295306  0.51642375  0.29304578  1
  Br  Br44  1  0.20778239  0.48191048  0.21389917  1
  Br  Br45  1  0.00235786  0.73791739  0.49447998  1
  Br  Br46  1  0.28761107  0.51758932  0.71014639  1
  Br  Br47  1  0.79069659  0.48405966  0.78864832  1
