# generated using pymatgen
data_TlBiH10C2(Br3N2)2
_symmetry_space_group_name_H-M   'P 1'
_cell_length_a   8.34687829
_cell_length_b   11.76851349
_cell_length_c   8.33690863
_cell_angle_alpha   90.06263381
_cell_angle_beta   90.00034328
_cell_angle_gamma   89.99521675
_symmetry_Int_Tables_number   1
_chemical_formula_structural   TlBiH10C2(Br3N2)2
_chemical_formula_sum   'Tl2 Bi2 H20 C4 Br12 N8'
_cell_volume   818.93695880
_cell_formula_units_Z   2
loop_
 _symmetry_equiv_pos_site_id
 _symmetry_equiv_pos_as_xyz
  1  'x, y, z'
loop_
 _atom_site_type_symbol
 _atom_site_label
 _atom_site_symmetry_multiplicity
 _atom_site_fract_x
 _atom_site_fract_y
 _atom_site_fract_z
 _atom_site_occupancy
  C  C0  1  0.49286114  0.29053521  0.49637156  1
  C  C1  1  0.99293712  0.20945339  0.00363509  1
  C  C2  1  0.50701794  0.79052635  0.50385440  1
  C  C3  1  0.00694172  0.70948182  0.99612085  1
  N  N4  1  0.59355662  0.23956716  0.59351384  1
  N  N5  1  0.39614570  0.23927958  0.39547532  1
  N  N6  1  0.09365653  0.26041789  0.90655352  1
  N  N7  1  0.89618552  0.26070325  0.10452955  1
  N  N8  1  0.60477117  0.73932313  0.60364234  1
  N  N9  1  0.40540829  0.73951322  0.40756868  1
  N  N10  1  0.10472332  0.76068301  0.89636673  1
  N  N11  1  0.90530219  0.76049126  0.09237958  1
  H  H12  1  0.48907434  0.38313724  0.50004816  1
  H  H13  1  0.66342799  0.28699943  0.66828812  1
  H  H14  1  0.60743823  0.15354584  0.59608870  1
  H  H15  1  0.32298863  0.28704947  0.32417809  1
  H  H16  1  0.38881354  0.15305023  0.38556009  1
  H  H17  1  0.98913291  0.11684986  -0.00006385  1
  H  H18  1  0.16356548  0.21297996  0.83177544  1
  H  H19  1  0.10756571  0.34645061  0.90401890  1
  H  H20  1  0.82301585  0.21294196  0.17577677  1
  H  H21  1  0.88886234  0.34692565  0.11446101  1
  H  H22  1  0.51076806  0.88313151  0.50032529  1
  H  H23  1  0.68002186  0.78711574  0.67284803  1
  H  H24  1  0.60825926  0.65323386  0.61721670  1
  H  H25  1  0.33368164  0.78691985  0.33469164  1
  H  H26  1  0.39564851  0.65333449  0.40064954  1
  H  H27  1  0.01070455  0.61687478  0.99962909  1
  H  H28  1  0.17998634  0.71290228  0.82718243  1
  H  H29  1  0.10820040  0.84676891  0.88281550  1
  H  H30  1  0.83353638  0.71307470  0.16522841  1
  H  H31  1  0.89550531  0.84668143  0.09930119  1
  Tl  Tl32  1  0.50003724  0.99992129  0.99805189  1
  Tl  Tl33  1  0.00003718  0.50010214  0.50197010  1
  Bi  Bi34  1  0.00056548  0.00007583  0.49842107  1
  Bi  Bi35  1  0.50055548  0.49994366  0.00158809  1
  Br  Br36  1  0.49756640  0.26032515  0.99329453  1
  Br  Br37  1  0.19047622  0.98604424  0.21303195  1
  Br  Br38  1  0.71283471  0.01995302  0.30948745  1
  Br  Br39  1  0.99751775  0.23969457  0.50675102  1
  Br  Br40  1  0.28513814  0.01504451  0.68863164  1
  Br  Br41  1  0.81148385  0.97901189  0.78563696  1
  Br  Br42  1  0.50208717  0.73962870  0.00687992  1
  Br  Br43  1  0.69045047  0.51394725  0.28698978  1
  Br  Br44  1  0.21280898  0.48007345  0.19050391  1
  Br  Br45  1  0.00213738  0.76039316  0.49308966  1
  Br  Br46  1  0.31149648  0.52101777  0.71436099  1
  Br  Br47  1  0.78512186  0.48494323  0.81138505  1
