# generated using pymatgen
data_BeH5CN2Cl3
_symmetry_space_group_name_H-M   'P 1'
_cell_length_a   6.40231840
_cell_length_b   12.87099821
_cell_length_c   7.82102184
_cell_angle_alpha   89.99939393
_cell_angle_beta   90.03205169
_cell_angle_gamma   89.84431488
_symmetry_Int_Tables_number   1
_chemical_formula_structural   BeH5CN2Cl3
_chemical_formula_sum   'Be4 H20 C4 N8 Cl12'
_cell_volume   644.48279173
_cell_formula_units_Z   4
loop_
 _symmetry_equiv_pos_site_id
 _symmetry_equiv_pos_as_xyz
  1  'x, y, z'
loop_
 _atom_site_type_symbol
 _atom_site_label
 _atom_site_symmetry_multiplicity
 _atom_site_fract_x
 _atom_site_fract_y
 _atom_site_fract_z
 _atom_site_occupancy
  C  C0  1  0.45630943  0.32468193  0.48055122  1
  C  C1  1  0.95280036  0.17525445  0.01994403  1
  C  C2  1  0.54682595  0.82475637  0.51954083  1
  C  C3  1  0.04408435  0.67531964  0.98032023  1
  N  N4  1  0.46025464  0.31425191  0.64709837  1
  N  N5  1  0.44633974  0.24776609  0.37088940  1
  N  N6  1  0.95829430  0.18488563  0.85330331  1
  N  N7  1  0.94919237  0.25269199  0.12891594  1
  N  N8  1  0.55099791  0.74746400  0.62878274  1
  N  N9  1  0.54143082  0.81488563  0.35293442  1
  N  N10  1  0.05353119  0.75231901  0.87078524  1
  N  N11  1  0.04000154  0.68563029  0.14688341  1
  H  H12  1  0.46222700  0.40341043  0.42917916  1
  H  H13  1  0.47706465  0.37874716  0.72123512  1
  H  H14  1  0.45830448  0.24443768  0.70958898  1
  H  H15  1  0.43789933  0.26264119  0.24296774  1
  H  H16  1  0.43329922  0.17229612  0.40997184  1
  H  H17  1  0.95215918  0.09667651  0.07212079  1
  H  H18  1  0.96776843  0.11962899  0.78016031  1
  H  H19  1  0.96158905  0.25436113  0.78979162  1
  H  H20  1  0.93961221  0.23846805  0.25699519  1
  H  H21  1  0.94299580  0.32827569  0.08938880  1
  H  H22  1  0.54691249  0.90340663  0.57143521  1
  H  H23  1  0.56048483  0.76187552  0.75681225  1
  H  H24  1  0.55764120  0.67183912  0.58952243  1
  H  H25  1  0.53130864  0.88000903  0.27950505  1
  H  H26  1  0.53862778  0.74531314  0.28969990  1
  H  H27  1  0.03872265  0.59661617  0.92880897  1
  H  H28  1  0.06215466  0.73752893  0.74285082  1
  H  H29  1  0.06615708  0.82778328  0.90999410  1
  H  H30  1  0.02373449  0.62104290  0.22086635  1
  H  H31  1  0.04143976  0.75540117  0.20951867  1
  Be  Be32  1  0.46929351  0.02416438  0.97245975  1
  Be  Be33  1  0.97165793  0.47572319  0.52724747  1
  Be  Be34  1  0.03029987  0.97589286  0.47237638  1
  Be  Be35  1  0.52869469  0.52431541  0.02706860  1
  Cl  Cl36  1  0.46070715  0.17300666  0.97832949  1
  Cl  Cl37  1  0.24769650  0.95063243  0.08784705  1
  Cl  Cl38  1  0.79538134  0.04992829  0.38117732  1
  Cl  Cl39  1  0.96240200  0.32686833  0.52235212  1
  Cl  Cl40  1  0.25192234  0.04947812  0.58783161  1
  Cl  Cl41  1  0.70399915  0.95007946  0.88117680  1
  Cl  Cl42  1  0.53778466  0.67315689  0.02199946  1
  Cl  Cl43  1  0.75034108  0.54959329  0.41079031  1
  Cl  Cl44  1  0.29544279  0.45062424  0.12011155  1
  Cl  Cl45  1  0.03911272  0.82704356  0.47810016  1
  Cl  Cl46  1  0.20511949  0.54940234  0.62014518  1
  Cl  Cl47  1  0.74999857  0.45048775  0.91072908  1
