# generated using pymatgen
data_BH5CN2Cl3
_symmetry_space_group_name_H-M   'P 1'
_cell_length_a   6.74946285
_cell_length_b   10.75889391
_cell_length_c   9.44297299
_cell_angle_alpha   81.35137058
_cell_angle_beta   91.00516183
_cell_angle_gamma   79.71634652
_symmetry_Int_Tables_number   1
_chemical_formula_structural   BH5CN2Cl3
_chemical_formula_sum   'B4 H20 C4 N8 Cl12'
_cell_volume   666.33590752
_cell_formula_units_Z   4
loop_
 _symmetry_equiv_pos_site_id
 _symmetry_equiv_pos_as_xyz
  1  'x, y, z'
loop_
 _atom_site_type_symbol
 _atom_site_label
 _atom_site_symmetry_multiplicity
 _atom_site_fract_x
 _atom_site_fract_y
 _atom_site_fract_z
 _atom_site_occupancy
  C  C0  1  0.43061297  0.24392317  0.40994735  1
  C  C1  1  0.93857756  0.20872495  0.11395860  1
  C  C2  1  0.40063835  0.88628717  0.47516648  1
  C  C3  1  0.03732599  0.70544759  0.98364879  1
  N  N4  1  0.52046195  0.20143356  0.53965675  1
  N  N5  1  0.45130020  0.19052262  0.29421190  1
  N  N6  1  0.13334720  0.19639854  0.10002258  1
  N  N7  1  0.83623433  0.26018595  0.21502355  1
  N  N8  1  0.56847663  0.80223938  0.49271065  1
  N  N9  1  0.22060172  0.86290055  0.44677955  1
  N  N10  1  0.04971279  0.75852934  0.85045059  1
  N  N11  1  0.12559351  0.73495836  0.09518900  1
  H  H12  1  0.32640717  0.33514484  0.40171732  1
  H  H13  1  0.49191744  0.25429112  0.61981940  1
  H  H14  1  0.63503091  0.12358215  0.55854113  1
  H  H15  1  0.62647454  0.55053020  0.09150264  1
  H  H16  1  0.54729123  0.10306948  0.30936388  1
  H  H17  1  0.85049972  0.17536292  0.03411520  1
  H  H18  1  0.18827437  0.15183648  0.01669178  1
  H  H19  1  0.24302939  0.20736091  0.17758533  1
  H  H20  1  0.68643634  0.25274060  0.22532339  1
  H  H21  1  0.90776321  0.28811249  0.29752606  1
  H  H22  1  0.40910067  0.98507032  0.48459609  1
  H  H23  1  0.69907674  0.83260367  0.51572279  1
  H  H24  1  0.57611014  0.70824170  0.48078240  1
  H  H25  1  0.08426896  0.07195372  0.39946770  1
  H  H26  1  0.20567520  0.76980282  0.44677634  1
  H  H27  1  0.94774875  0.63016669  0.00274794  1
  H  H28  1  0.96364119  0.73561107  0.77240080  1
  H  H29  1  0.11702748  0.83651826  0.82452348  1
  H  H30  1  0.10193025  0.68722578  0.19335723  1
  H  H31  1  0.21210825  0.80510458  0.09001147  1
  B  B32  1  0.47184119  0.95156270  0.91939009  1
  B  B33  1  0.91024619  0.48399977  0.46736975  1
  B  B34  1  0.03668639  0.96853113  0.41914217  1
  B  B35  1  0.60120061  0.49386231  0.99556587  1
  Cl  Cl36  1  0.66065809  0.05519103  0.88339412  1
  Cl  Cl37  1  0.44510386  0.91401466  0.11661899  1
  Cl  Cl38  1  0.88011357  0.94000544  0.26870994  1
  Cl  Cl39  1  0.98887128  0.32218371  0.56858923  1
  Cl  Cl40  1  0.22299448  0.03671005  0.83083496  1
  Cl  Cl41  1  0.88248617  0.96143390  0.58693533  1
  Cl  Cl42  1  0.54188587  0.79889247  0.84676112  1
  Cl  Cl43  1  0.63003075  0.51602392  0.43494876  1
  Cl  Cl44  1  0.03061949  0.49520696  0.28907655  1
  Cl  Cl45  1  0.99801357  0.60496558  0.56392421  1
  Cl  Cl46  1  0.37983659  0.43436907  0.97827130  1
  Cl  Cl47  1  0.78673608  0.46722930  0.87123421  1
