# generated using pymatgen
data_H5C2N2Cl3
_symmetry_space_group_name_H-M   'P 1'
_cell_length_a   7.26135377
_cell_length_b   10.37524755
_cell_length_c   8.04289651
_cell_angle_alpha   95.94831839
_cell_angle_beta   89.98785931
_cell_angle_gamma   90.03304204
_symmetry_Int_Tables_number   1
_chemical_formula_structural   H5C2N2Cl3
_chemical_formula_sum   'H20 C8 N8 Cl12'
_cell_volume   602.67588031
_cell_formula_units_Z   4
loop_
 _symmetry_equiv_pos_site_id
 _symmetry_equiv_pos_as_xyz
  1  'x, y, z'
loop_
 _atom_site_type_symbol
 _atom_site_label
 _atom_site_symmetry_multiplicity
 _atom_site_fract_x
 _atom_site_fract_y
 _atom_site_fract_z
 _atom_site_occupancy
  C  C0  1  0.53209587  0.28932122  0.51869002  1
  C  C1  1  0.03178770  0.21072953  0.98142196  1
  C  C2  1  0.53224069  0.78861846  0.51765516  1
  C  C3  1  0.03228935  0.71158482  0.98233023  1
  N  N4  1  0.58936528  0.21610655  0.63200754  1
  N  N5  1  0.41565829  0.25376284  0.39881955  1
  N  N6  1  0.08960700  0.28380984  0.86811429  1
  N  N7  1  0.91519424  0.24643915  0.10110674  1
  N  N8  1  0.58899233  0.71522441  0.63097974  1
  N  N9  1  0.41563292  0.75336562  0.39782241  1
  N  N10  1  0.08954130  0.78508072  0.86925947  1
  N  N11  1  0.91532373  0.74671964  0.10191540  1
  H  H12  1  0.58851239  0.38693665  0.52438560  1
  H  H13  1  0.67217450  0.25662410  0.72538110  1
  H  H14  1  0.53649887  0.12635803  0.64264920  1
  H  H15  1  0.37437438  0.31994508  0.32079034  1
  H  H16  1  0.35517366  0.16400792  0.38264669  1
  H  H17  1  0.08785276  0.11306698  0.97590545  1
  H  H18  1  0.17241250  0.24313278  0.77484770  1
  H  H19  1  0.03718663  0.37361922  0.85730855  1
  H  H20  1  0.87358265  0.18034636  0.17918850  1
  H  H21  1  0.85504402  0.33625956  0.11717800  1
  H  H22  1  0.58928929  0.88604855  0.52326400  1
  H  H23  1  0.67192200  0.75543079  0.72444214  1
  H  H24  1  0.53517111  0.62577470  0.64179464  1
  H  H25  1  0.37482116  0.81961667  0.31972260  1
  H  H26  1  0.35466492  0.66375687  0.38167137  1
  H  H27  1  0.08922115  0.61416681  0.97674724  1
  H  H28  1  0.17272582  0.74498880  0.77594555  1
  H  H29  1  0.03587628  0.87452549  0.85838100  1
  H  H30  1  0.87419715  0.68040503  0.17986792  1
  H  H31  1  0.85450252  0.83632640  0.11807185  1
  C  C32  1  0.54074060  0.00518889  0.02243401  1
  C  C33  1  0.04068895  0.49438828  0.47755285  1
  C  C34  1  0.04155476  0.99459335  0.47819128  1
  C  C35  1  0.54167225  0.50502901  0.02170496  1
  Cl  Cl36  1  0.48103120  0.17634069  0.01174996  1
  Cl  Cl37  1  0.18219833  0.99131453  0.27511850  1
  Cl  Cl38  1  0.68214039  0.00878663  0.22531830  1
  Cl  Cl39  1  0.98139805  0.32310530  0.48819101  1
  Cl  Cl40  1  0.23278424  0.02091025  0.64858164  1
  Cl  Cl41  1  0.73131749  0.97860904  0.85149209  1
  Cl  Cl42  1  0.48143555  0.67617188  0.01101165  1
  Cl  Cl43  1  0.68221547  0.50865832  0.22490704  1
  Cl  Cl44  1  0.18215324  0.49113315  0.27472779  1
  Cl  Cl45  1  0.98164818  0.82336067  0.48885048  1
  Cl  Cl46  1  0.23112700  0.52132997  0.64854236  1
  Cl  Cl47  1  0.73298117  0.47904346  0.85141887  1
