# generated using pymatgen
data_H5C(NCl)3
_symmetry_space_group_name_H-M   'P 1'
_cell_length_a   7.65386777
_cell_length_b   9.74633757
_cell_length_c   8.32996956
_cell_angle_alpha   100.18461691
_cell_angle_beta   90.03635355
_cell_angle_gamma   90.03889952
_symmetry_Int_Tables_number   1
_chemical_formula_structural   H5C(NCl)3
_chemical_formula_sum   'H20 C4 N12 Cl12'
_cell_volume   611.60070469
_cell_formula_units_Z   4
loop_
 _symmetry_equiv_pos_site_id
 _symmetry_equiv_pos_as_xyz
  1  'x, y, z'
loop_
 _atom_site_type_symbol
 _atom_site_label
 _atom_site_symmetry_multiplicity
 _atom_site_fract_x
 _atom_site_fract_y
 _atom_site_fract_z
 _atom_site_occupancy
  C  C0  1  0.52697021  0.27139812  0.48506923  1
  C  C1  1  0.02633008  0.22915683  0.01419033  1
  C  C2  1  0.49526562  0.77482829  0.40247434  1
  C  C3  1  0.99646778  0.72472183  0.09852208  1
  N  N4  1  0.43413954  0.19095087  0.56350252  1
  N  N5  1  0.53508668  0.25657973  0.32617365  1
  N  N6  1  0.93251235  0.30924362  0.93611333  1
  N  N7  1  0.03542728  0.24401794  0.17304981  1
  N  N8  1  0.57709791  0.70590259  0.50126633  1
  N  N9  1  0.47940578  0.73483023  0.24404951  1
  N  N10  1  0.07729181  0.79343234  0.99890564  1
  N  N11  1  0.97961237  0.76608482  0.25660893  1
  H  H12  1  0.60160848  0.35600696  0.55744260  1
  H  H13  1  0.42825029  0.21266849  0.68785007  1
  H  H14  1  0.35359272  0.11654571  0.49987553  1
  H  H15  1  0.60917589  0.32628851  0.27542762  1
  H  H16  1  0.46593095  0.17838772  0.25459694  1
  H  H17  1  0.10096052  0.14487802  0.94150092  1
  H  H18  1  0.92592151  0.28750854  0.81180232  1
  H  H19  1  0.85196492  0.38331212  0.00004321  1
  H  H20  1  0.10997885  0.17449248  0.22360539  1
  H  H21  1  0.96637640  0.32197786  0.24487919  1
  H  H22  1  0.43262076  0.87307156  0.45494372  1
  H  H23  1  0.57808575  0.74472683  0.62329385  1
  H  H24  1  0.64342611  0.61558771  0.45519352  1
  H  H25  1  0.41742869  0.80262968  0.18218076  1
  H  H26  1  0.52900532  0.64302053  0.18133938  1
  H  H27  1  0.93564339  0.62536627  0.04707181  1
  H  H28  1  0.07924985  0.75332883  0.87721467  1
  H  H29  1  0.14239446  0.88462500  0.04405238  1
  H  H30  1  0.91826111  0.69848562  0.31916641  1
  H  H31  1  0.02776060  0.85880248  0.31861928  1
  N  N32  1  0.58860284  0.00734001  0.91931541  1
  N  N33  1  0.08863361  0.49195762  0.58049991  1
  N  N34  1  0.96548194  0.00835060  0.55821180  1
  N  N35  1  0.46582707  0.49122573  0.94181430  1
  Cl  Cl36  1  0.47293162  0.31160790  0.95524173  1
  Cl  Cl37  1  0.27007531  0.01000774  0.24522325  1
  Cl  Cl38  1  0.71192937  0.98920735  0.09192232  1
  Cl  Cl39  1  0.97225052  0.18786362  0.54439569  1
  Cl  Cl40  1  0.15638262  0.97028084  0.66313726  1
  Cl  Cl41  1  0.77033580  0.99910281  0.73557756  1
  Cl  Cl42  1  0.45717148  0.85443736  0.86573090  1
  Cl  Cl43  1  0.77044492  0.49044674  0.25473487  1
  Cl  Cl44  1  0.21200935  0.51059005  0.40823526  1
  Cl  Cl45  1  0.95751767  0.64476169  0.63442404  1
  Cl  Cl46  1  0.27060322  0.50014050  0.76447237  1
  Cl  Cl47  1  0.65657803  0.52988429  0.83714283  1
