# generated using pymatgen
data_MgH5CN2Cl3
_symmetry_space_group_name_H-M   'P 1'
_cell_length_a   8.68045487
_cell_length_b   7.70449312
_cell_length_c   9.95588526
_cell_angle_alpha   90.00243401
_cell_angle_beta   89.99818516
_cell_angle_gamma   90.01586928
_symmetry_Int_Tables_number   1
_chemical_formula_structural   MgH5CN2Cl3
_chemical_formula_sum   'Mg4 H20 C4 N8 Cl12'
_cell_volume   665.83469420
_cell_formula_units_Z   4
loop_
 _symmetry_equiv_pos_site_id
 _symmetry_equiv_pos_as_xyz
  1  'x, y, z'
loop_
 _atom_site_type_symbol
 _atom_site_label
 _atom_site_symmetry_multiplicity
 _atom_site_fract_x
 _atom_site_fract_y
 _atom_site_fract_z
 _atom_site_occupancy
  C  C0  1  0.48742959  0.26552008  0.50038219  1
  C  C1  1  0.98752408  0.23460486  0.99953081  1
  C  C2  1  0.51247497  0.76539460  0.49955715  1
  C  C3  1  0.01262028  0.73448840  0.00036807  1
  N  N4  1  0.63379926  0.26636359  0.53274974  1
  N  N5  1  0.43443783  0.20444497  0.38611790  1
  N  N6  1  0.13394826  0.23363588  0.96733303  1
  N  N7  1  0.93442928  0.29544483  0.11382812  1
  N  N8  1  0.56552083  0.70450631  0.61385083  1
  N  N9  1  0.36607097  0.76632679  0.46730572  1
  N  N10  1  0.06555031  0.79562546  0.88610253  1
  N  N11  1  0.86626433  0.73363459  0.03280046  1
  H  H12  1  0.40450237  0.31877831  0.57203743  1
  H  H13  1  0.67210383  0.31891741  0.62156293  1
  H  H14  1  0.71489515  0.22165690  0.46688561  1
  H  H15  1  0.31964983  0.20782851  0.36517968  1
  H  H16  1  0.50678232  0.15123709  0.31611162  1
  H  H17  1  0.90462980  0.18166535  0.92770153  1
  H  H18  1  0.17230469  0.18130531  0.87848075  1
  H  H19  1  0.21500914  0.27809767  0.03335758  1
  H  H20  1  0.81959457  0.29212454  0.13461570  1
  H  H21  1  0.00671488  0.34839286  0.18401654  1
  H  H22  1  0.59539036  0.81840744  0.42777493  1
  H  H23  1  0.68034414  0.70784187  0.63468095  1
  H  H24  1  0.49320928  0.65150297  0.68398815  1
  H  H25  1  0.32773842  0.81870614  0.37846869  1
  H  H26  1  0.28498512  0.72179894  0.53328851  1
  H  H27  1  0.09557665  0.68119011  0.07196290  1
  H  H28  1  0.18033097  0.79224646  0.86510605  1
  H  H29  1  0.99316270  0.84886251  0.81614709  1
  H  H30  1  0.82799217  0.68104152  0.12159982  1
  H  H31  1  0.78513101  0.77838065  0.96698462  1
  Mg  Mg32  1  0.51754191  0.01411519  0.86786110  1
  Mg  Mg33  1  0.01729755  0.48593123  0.63215802  1
  Mg  Mg34  1  0.98245099  0.98587994  0.36784346  1
  Mg  Mg35  1  0.48266515  0.51410603  0.13217607  1
  Cl  Cl36  1  0.52365239  0.23640739  0.03130626  1
  Cl  Cl37  1  0.19105049  0.96532582  0.22771397  1
  Cl  Cl38  1  0.73906165  0.00285452  0.27902208  1
  Cl  Cl39  1  0.02350432  0.26359185  0.46873273  1
  Cl  Cl40  1  0.30897483  0.03468881  0.72771262  1
  Cl  Cl41  1  0.76092792  0.99712757  0.77902593  1
  Cl  Cl42  1  0.47650507  0.73642319  0.96875373  1
  Cl  Cl43  1  0.69124273  0.53459143  0.27234694  1
  Cl  Cl44  1  0.23924454  0.49704858  0.22095918  1
  Cl  Cl45  1  0.97634441  0.76362139  0.53130104  1
  Cl  Cl46  1  0.26070687  0.50293822  0.72096210  1
  Cl  Cl47  1  0.80873111  0.46543892  0.77235186  1
