# generated using pymatgen
data_AlH5CN2Cl3
_symmetry_space_group_name_H-M   'P 1'
_cell_length_a   7.86230222
_cell_length_b   10.11507493
_cell_length_c   8.72889622
_cell_angle_alpha   90.76179709
_cell_angle_beta   90.00045669
_cell_angle_gamma   90.00799262
_symmetry_Int_Tables_number   1
_chemical_formula_structural   AlH5CN2Cl3
_chemical_formula_sum   'Al4 H20 C4 N8 Cl12'
_cell_volume   694.12833871
_cell_formula_units_Z   4
loop_
 _symmetry_equiv_pos_site_id
 _symmetry_equiv_pos_as_xyz
  1  'x, y, z'
loop_
 _atom_site_type_symbol
 _atom_site_label
 _atom_site_symmetry_multiplicity
 _atom_site_fract_x
 _atom_site_fract_y
 _atom_site_fract_z
 _atom_site_occupancy
  C  C0  1  0.53186956  0.27616693  0.50404637  1
  C  C1  1  0.03191547  0.22386759  0.99603193  1
  C  C2  1  0.50110797  0.79933543  0.51415429  1
  C  C3  1  0.00101045  0.70064184  0.98590107  1
  N  N4  1  0.58324448  0.21309497  0.62594015  1
  N  N5  1  0.39459697  0.24663007  0.42493168  1
  N  N6  1  0.08322000  0.28701233  0.87416319  1
  N  N7  1  0.89459642  0.25326091  0.07514473  1
  N  N8  1  0.60301872  0.76258361  0.62432112  1
  N  N9  1  0.41645075  0.71918626  0.42207560  1
  N  N10  1  0.10278673  0.73736649  0.87561353  1
  N  N11  1  0.91613183  0.78082788  0.07774995  1
  H  H12  1  0.61115563  0.35706616  0.46351221  1
  H  H13  1  0.68744812  0.24764607  0.68302024  1
  H  H14  1  0.51150646  0.14073001  0.67565307  1
  H  H15  1  0.35798062  0.30513898  0.33650917  1
  H  H16  1  0.31232333  0.17476601  0.45943741  1
  H  H17  1  0.11128415  0.14303041  0.03655341  1
  H  H18  1  0.18750041  0.25261186  0.81709963  1
  H  H19  1  0.01140690  0.35933395  0.82447461  1
  H  H20  1  0.85803373  0.19469154  0.16353714  1
  H  H21  1  0.81223843  0.32505417  0.04066433  1
  H  H22  1  0.48530725  0.90483886  0.49617629  1
  H  H23  1  0.66372919  0.83294769  0.69026342  1
  H  H24  1  0.62468991  0.66559577  0.64973268  1
  H  H25  1  0.33429800  0.75809029  0.34456180  1
  H  H26  1  0.41124094  0.61984634  0.43959685  1
  H  H27  1  0.98557011  0.59515112  0.00421881  1
  H  H28  1  0.16367006  0.66700051  0.80982600  1
  H  H29  1  0.12416991  0.83434750  0.84996482  1
  H  H30  1  0.83412843  0.74194043  0.15540996  1
  H  H31  1  0.91056113  0.88010397  0.05983435  1
  Al  Al32  1  0.48112579  0.99785428  0.11562500  1
  Al  Al33  1  0.98129917  0.50213496  0.38440547  1
  Al  Al34  1  0.98541680  0.00155091  0.56523094  1
  Al  Al35  1  0.48555904  0.49854080  0.93473463  1
  Cl  Cl36  1  0.47613241  0.18382013  0.99880080  1
  Cl  Cl37  1  0.24293481  0.98130039  0.24092618  1
  Cl  Cl38  1  0.69484985  0.00950310  0.27150893  1
  Cl  Cl39  1  0.97623542  0.31620225  0.50128054  1
  Cl  Cl40  1  0.25722095  0.01965116  0.69857209  1
  Cl  Cl41  1  0.83378042  0.99373371  0.80211829  1
  Cl  Cl42  1  0.49887828  0.81915247  0.98402411  1
  Cl  Cl43  1  0.74308544  0.51862606  0.25911449  1
  Cl  Cl44  1  0.19501246  0.49043287  0.22851136  1
  Cl  Cl45  1  0.99910901  0.68091861  0.51585724  1
  Cl  Cl46  1  0.33384716  0.50632987  0.69795049  1
  Cl  Cl47  1  0.75734027  0.48040544  0.80132441  1
