# generated using pymatgen
data_SiH5CN2Cl3
_symmetry_space_group_name_H-M   'P 1'
_cell_length_a   6.93676307
_cell_length_b   11.27497744
_cell_length_c   8.48121054
_cell_angle_alpha   89.97939192
_cell_angle_beta   89.31766801
_cell_angle_gamma   90.04524232
_symmetry_Int_Tables_number   1
_chemical_formula_structural   SiH5CN2Cl3
_chemical_formula_sum   'Si4 H20 C4 N8 Cl12'
_cell_volume   663.28385310
_cell_formula_units_Z   4
loop_
 _symmetry_equiv_pos_site_id
 _symmetry_equiv_pos_as_xyz
  1  'x, y, z'
loop_
 _atom_site_type_symbol
 _atom_site_label
 _atom_site_symmetry_multiplicity
 _atom_site_fract_x
 _atom_site_fract_y
 _atom_site_fract_z
 _atom_site_occupancy
  C  C0  1  0.52995049  0.29984515  0.48310534  1
  C  C1  1  0.01375578  0.21982603  0.03347860  1
  C  C2  1  0.51377612  0.78144916  0.53606899  1
  C  C3  1  0.03124910  0.70044452  0.98997432  1
  N  N4  1  0.49933358  0.21494299  0.58645718  1
  N  N5  1  0.52215090  0.28604826  0.32990751  1
  N  N6  1  0.99736493  0.21126854  0.88023037  1
  N  N7  1  0.95196268  0.30943992  0.11925746  1
  N  N8  1  0.45220442  0.69142698  0.62136960  1
  N  N9  1  0.49705769  0.79052947  0.38288923  1
  N  N10  1  0.02135880  0.71062276  0.83632105  1
  N  N11  1  0.99872353  0.78723700  0.08996447  1
  H  H12  1  0.56624256  0.38765111  0.52796051  1
  H  H13  1  0.50379801  0.23161241  0.70480511  1
  H  H14  1  0.45379257  0.13255434  0.55371389  1
  H  H15  1  0.53843533  0.35707594  0.25461681  1
  H  H16  1  0.48928849  0.20633328  0.28008768  1
  H  H17  1  0.08446132  0.14753284  0.09580547  1
  H  H18  1  0.05829696  0.14032708  0.82311842  1
  H  H19  1  0.93549256  0.27645209  0.81434555  1
  H  H20  1  0.96841638  0.30852172  0.23917405  1
  H  H21  1  0.88359625  0.38000202  0.06955447  1
  H  H22  1  0.58445298  0.85364113  0.59869426  1
  H  H23  1  0.46900534  0.69181606  0.74124444  1
  H  H24  1  0.38382610  0.62102555  0.57113265  1
  H  H25  1  0.55711336  0.86200842  0.32612564  1
  H  H26  1  0.43514489  0.72547464  0.31678540  1
  H  H27  1  0.07103101  0.61427383  0.03830328  1
  H  H28  1  0.04009432  0.63829987  0.76402939  1
  H  H29  1  0.98413792  0.78845324  0.78344781  1
  H  H30  1  0.00405550  0.77333214  0.20902695  1
  H  H31  1  0.95057944  0.86819591  0.05375009  1
  Si  Si32  1  0.51253643  0.98785493  0.00950935  1
  Si  Si33  1  0.01193799  0.51902454  0.50053171  1
  Si  Si34  1  0.01220603  0.01074374  0.50986054  1
  Si  Si35  1  0.51204097  0.47962526  0.99993612  1
  Cl  Cl36  1  0.48675281  0.18245429  0.97142016  1
  Cl  Cl37  1  0.23385725  0.04079637  0.32307305  1
  Cl  Cl38  1  0.72270100  0.01088675  0.20979187  1
  Cl  Cl39  1  0.01071645  0.32203378  0.50229154  1
  Cl  Cl40  1  0.22480313  0.99035708  0.70836078  1
  Cl  Cl41  1  0.73779115  0.95774701  0.82547555  1
  Cl  Cl42  1  0.51217749  0.67639409  0.00419394  1
  Cl  Cl43  1  0.77797419  0.54375927  0.33291504  1
  Cl  Cl44  1  0.24732649  0.53734409  0.32100570  1
  Cl  Cl45  1  0.98791523  0.81548355  0.47501942  1
  Cl  Cl46  1  0.27558340  0.45615652  0.83446052  1
  Cl  Cl47  1  0.74355000  0.46173729  0.81751346  1
