# generated using pymatgen
data_CaCdH12C2(I3N)2
_symmetry_space_group_name_H-M   'P 1'
_cell_length_a   8.39166002
_cell_length_b   12.17685341
_cell_length_c   8.30756621
_cell_angle_alpha   90.31441634
_cell_angle_beta   90.01209360
_cell_angle_gamma   89.99744069
_symmetry_Int_Tables_number   1
_chemical_formula_structural   CaCdH12C2(I3N)2
_chemical_formula_sum   'Ca2 Cd2 H24 C4 I12 N4'
_cell_volume   848.88766015
_cell_formula_units_Z   2
loop_
 _symmetry_equiv_pos_site_id
 _symmetry_equiv_pos_as_xyz
  1  'x, y, z'
loop_
 _atom_site_type_symbol
 _atom_site_label
 _atom_site_symmetry_multiplicity
 _atom_site_fract_x
 _atom_site_fract_y
 _atom_site_fract_z
 _atom_site_occupancy
  C  C0  1  0.39550453  0.25008689  0.41447000  1
  C  C1  1  0.89670910  0.25013770  0.08665186  1
  C  C2  1  0.60449303  0.74991585  0.58554314  1
  C  C3  1  0.10329734  0.74986341  0.91336306  1
  N  N4  1  0.53695656  0.25009597  0.52134296  1
  N  N5  1  0.03748978  0.24994863  0.97895509  1
  N  N6  1  0.46303850  0.74990894  0.47867172  1
  N  N7  1  0.96251933  0.75004865  0.02106140  1
  H  H8  1  0.43596662  0.25014927  0.28914429  1
  H  H9  1  0.32484020  0.17654023  0.43823733  1
  H  H10  1  0.32555021  0.32399801  0.43904002  1
  H  H11  1  0.60644773  0.18087796  0.49866403  1
  H  H12  1  0.60668574  0.31895098  0.49847413  1
  H  H13  1  0.50625210  0.25070507  0.64323621  1
  H  H14  1  0.93806225  0.25012242  0.21174016  1
  H  H15  1  0.82649390  0.17625180  0.06270511  1
  H  H16  1  0.82601471  0.32372438  0.06330283  1
  H  H17  1  0.10720802  0.18105775  0.00145354  1
  H  H18  1  0.10718606  0.31912575  0.00115158  1
  H  H19  1  0.00601837  0.24932903  0.85720052  1
  H  H20  1  0.56403085  0.74985442  0.71087047  1
  H  H21  1  0.67444539  0.67600461  0.56097412  1
  H  H22  1  0.67515831  0.82346219  0.56177649  1
  H  H23  1  0.39355032  0.81912574  0.50135122  1
  H  H24  1  0.39331070  0.68105325  0.50153972  1
  H  H25  1  0.49374450  0.74929954  0.35677809  1
  H  H26  1  0.06194331  0.74988048  0.78827378  1
  H  H27  1  0.17351340  0.82374933  0.93731166  1
  H  H28  1  0.17399412  0.67627619  0.93670719  1
  H  H29  1  0.89279823  0.81893877  0.99856532  1
  H  H30  1  0.89282533  0.68087108  0.99886404  1
  H  H31  1  0.99399233  0.75066810  0.14281496  1
  Ca  Ca32  1  0.50000089  0.00000792  0.00000885  1
  Ca  Ca33  1  0.99998941  0.50000187  0.49999272  1
  Cd  Cd34  1  0.00000111  0.00000233  0.50001401  1
  Cd  Cd35  1  0.49999608  0.50001220  0.99998654  1
  I  I36  1  0.47517790  0.25306103  0.94377695  1
  I  I37  1  0.17781873  0.01423124  0.18516502  1
  I  I38  1  0.68834335  0.01159274  0.32439575  1
  I  I39  1  0.97452057  0.24695224  0.55681056  1
  I  I40  1  0.31166253  0.98841254  0.67561999  1
  I  I41  1  0.82218599  0.98576918  0.81485586  1
  I  I42  1  0.52482603  0.74695100  0.05623556  1
  I  I43  1  0.67772887  0.48566255  0.31480908  1
  I  I44  1  0.18838895  0.48856285  0.17563748  1
  I  I45  1  0.02547695  0.75305263  0.44320594  1
  I  I46  1  0.32225618  0.51434058  0.68518388  1
  I  I47  1  0.81160930  0.51144299  0.82436238  1
