# generated using pymatgen
data_PH5CN2Cl3
_symmetry_space_group_name_H-M   'P 1'
_cell_length_a   8.84970163
_cell_length_b   10.87917563
_cell_length_c   7.42533463
_cell_angle_alpha   89.99864369
_cell_angle_beta   72.85579812
_cell_angle_gamma   90.00173954
_symmetry_Int_Tables_number   1
_chemical_formula_structural   PH5CN2Cl3
_chemical_formula_sum   'P4 H20 C4 N8 Cl12'
_cell_volume   683.12673789
_cell_formula_units_Z   4
loop_
 _symmetry_equiv_pos_site_id
 _symmetry_equiv_pos_as_xyz
  1  'x, y, z'
loop_
 _atom_site_type_symbol
 _atom_site_label
 _atom_site_symmetry_multiplicity
 _atom_site_fract_x
 _atom_site_fract_y
 _atom_site_fract_z
 _atom_site_occupancy
  C  C0  1  0.45438377  0.28222015  0.49382356  1
  C  C1  1  0.01832449  0.22224784  0.01873379  1
  C  C2  1  0.54565853  0.78225693  0.50620387  1
  C  C3  1  0.98169341  0.72224360  0.98123617  1
  N  N4  1  0.59996409  0.25696987  0.48974190  1
  N  N5  1  0.35970627  0.20545659  0.44162122  1
  N  N6  1  0.15257033  0.28110238  0.95056791  1
  N  N7  1  0.88037912  0.25689590  0.00500594  1
  N  N8  1  0.64034715  0.70545627  0.55831669  1
  N  N9  1  0.40007333  0.75702367  0.51029096  1
  N  N10  1  0.11961836  0.75684115  0.99506231  1
  N  N11  1  0.84744626  0.78110787  0.04939139  1
  H  H12  1  0.40574372  0.37210274  0.54775086  1
  H  H13  1  0.67522255  0.32790672  0.50500252  1
  H  H14  1  0.65174423  0.17555455  0.43040246  1
  H  H15  1  0.24655340  0.23138408  0.45020383  1
  H  H16  1  0.39849617  0.12121589  0.38697049  1
  H  H17  1  0.01986268  0.13672586  0.09554516  1
  H  H18  1  0.25230650  0.24597868  0.97315149  1
  H  H19  1  0.16582106  0.36607616  0.88471208  1
  H  H20  1  0.78718833  0.19881052  0.06348923  1
  H  H21  1  0.86453522  0.33263303  0.93069945  1
  H  H22  1  0.59430179  0.87215589  0.45234549  1
  H  H23  1  0.75350184  0.73137766  0.54974807  1
  H  H24  1  0.60156228  0.62119493  0.61289398  1
  H  H25  1  0.32481581  0.82796891  0.49507559  1
  H  H26  1  0.34828857  0.67559183  0.56957497  1
  H  H27  1  0.98014582  0.63675714  0.90435002  1
  H  H28  1  0.21280161  0.69875850  0.93655301  1
  H  H29  1  0.13547307  0.83254631  0.06942775  1
  H  H30  1  0.74772529  0.74601951  0.02672820  1
  H  H31  1  0.83420655  0.86606163  0.11528823  1
  P  P32  1  0.52559175  0.02413111  0.94277106  1
  P  P33  1  0.90120069  0.44215504  0.46996058  1
  P  P34  1  0.09876056  0.94216830  0.53011246  1
  P  P35  1  0.47431909  0.52413535  0.05723135  1
  Cl  Cl36  1  0.51602229  0.21854912  0.97190348  1
  Cl  Cl37  1  0.17352157  0.99729005  0.24018014  1
  Cl  Cl38  1  0.70647686  0.02812702  0.23258246  1
  Cl  Cl39  1  0.97833718  0.26107268  0.50245154  1
  Cl  Cl40  1  0.37278411  0.00870512  0.77139083  1
  Cl  Cl41  1  0.74526392  0.00666937  0.74036720  1
  Cl  Cl42  1  0.48395371  0.71855491  0.02809839  1
  Cl  Cl43  1  0.62709055  0.50867709  0.22864908  1
  Cl  Cl44  1  0.25462508  0.50668761  0.25961018  1
  Cl  Cl45  1  0.02167706  0.76105861  0.49766541  1
  Cl  Cl46  1  0.29351040  0.52813304  0.76734706  1
  Cl  Cl47  1  0.82642295  0.49730579  0.75987495  1
