# generated using pymatgen
data_CaH5CN2Cl3
_symmetry_space_group_name_H-M   'P 1'
_cell_length_a   7.79616415
_cell_length_b   10.69698138
_cell_length_c   7.78907051
_cell_angle_alpha   90.00042515
_cell_angle_beta   89.99945285
_cell_angle_gamma   90.00034188
_symmetry_Int_Tables_number   1
_chemical_formula_structural   CaH5CN2Cl3
_chemical_formula_sum   'Ca4 H20 C4 N8 Cl12'
_cell_volume   649.57282758
_cell_formula_units_Z   4
loop_
 _symmetry_equiv_pos_site_id
 _symmetry_equiv_pos_as_xyz
  1  'x, y, z'
loop_
 _atom_site_type_symbol
 _atom_site_label
 _atom_site_symmetry_multiplicity
 _atom_site_fract_x
 _atom_site_fract_y
 _atom_site_fract_z
 _atom_site_occupancy
  C  C0  1  0.49547055  0.29076440  0.49741906  1
  C  C1  1  0.99543586  0.20942007  0.00256089  1
  C  C2  1  0.50459509  0.79058041  0.50257624  1
  C  C3  1  0.00450194  0.70924055  0.99743198  1
  N  N4  1  0.60352528  0.23625561  0.60179976  1
  N  N5  1  0.39208156  0.23350343  0.39108509  1
  N  N6  1  0.10354721  0.26393772  0.89820738  1
  N  N7  1  0.89210178  0.26668130  0.10892000  1
  N  N8  1  0.60793240  0.73332626  0.60892296  1
  N  N9  1  0.39649722  0.73605684  0.39820681  1
  N  N10  1  0.10788180  0.76649817  0.89109523  1
  N  N11  1  0.89642690  0.76375373  0.10180517  1
  H  H12  1  0.49096146  0.39250081  0.49921914  1
  H  H13  1  0.67826049  0.29062571  0.67945130  1
  H  H14  1  0.61793380  0.14167540  0.61096134  1
  H  H15  1  0.31323049  0.28622233  0.31548883  1
  H  H16  1  0.38481591  0.13867255  0.37874039  1
  H  H17  1  0.99084348  0.10768823  0.00068134  1
  H  H18  1  0.17824256  0.20958060  0.82052716  1
  H  H19  1  0.11802119  0.35851523  0.88912045  1
  H  H20  1  0.81320018  0.21397191  0.18449444  1
  H  H21  1  0.88490222  0.36150662  0.12133656  1
  H  H22  1  0.50916375  0.89231669  0.50071262  1
  H  H23  1  0.68682132  0.78603842  0.68451055  1
  H  H24  1  0.61515208  0.63849910  0.62132540  1
  H  H25  1  0.32179368  0.79040867  0.32053494  1
  H  H26  1  0.38204805  0.64147662  0.38910827  1
  H  H27  1  0.00902766  0.60750733  0.99925146  1
  H  H28  1  0.18675055  0.71377564  0.81550670  1
  H  H29  1  0.11513947  0.86132548  0.87873268  1
  H  H30  1  0.82170359  0.70938335  0.17945992  1
  H  H31  1  0.88200430  0.85833244  0.11095245  1
  Ca  Ca32  1  0.49948285  0.99998783  0.99708595  1
  Ca  Ca33  1  0.99950499  0.50001612  0.50292586  1
  Ca  Ca34  1  0.00050935  0.00001556  0.49707982  1
  Ca  Ca35  1  0.50050846  0.49998722  0.00292381  1
  Cl  Cl36  1  0.49900639  0.25000596  0.99741606  1
  Cl  Cl37  1  0.22216487  0.98543493  0.21944098  1
  Cl  Cl38  1  0.72229792  0.01421822  0.27502510  1
  Cl  Cl39  1  0.99898883  0.25000978  0.50258599  1
  Cl  Cl40  1  0.27783264  0.01456356  0.71943944  1
  Cl  Cl41  1  0.77769535  0.98578759  0.77502411  1
  Cl  Cl42  1  0.50098173  0.74999326  0.00257088  1
  Cl  Cl43  1  0.72217634  0.51458634  0.28056367  1
  Cl  Cl44  1  0.22227687  0.48580168  0.22495205  1
  Cl  Cl45  1  0.00102462  0.74999718  0.49740954  1
  Cl  Cl46  1  0.27772781  0.51420189  0.72496020  1
  Cl  Cl47  1  0.77782649  0.48541427  0.78055480  1
