# generated using pymatgen
data_CuH5CN2Cl3
_symmetry_space_group_name_H-M   'P 1'
_cell_length_a   7.14802890
_cell_length_b   10.31554894
_cell_length_c   8.25761426
_cell_angle_alpha   90.10930446
_cell_angle_beta   89.99994447
_cell_angle_gamma   89.98547267
_symmetry_Int_Tables_number   1
_chemical_formula_structural   CuH5CN2Cl3
_chemical_formula_sum   'Cu4 H20 C4 N8 Cl12'
_cell_volume   608.88101234
_cell_formula_units_Z   4
loop_
 _symmetry_equiv_pos_site_id
 _symmetry_equiv_pos_as_xyz
  1  'x, y, z'
loop_
 _atom_site_type_symbol
 _atom_site_label
 _atom_site_symmetry_multiplicity
 _atom_site_fract_x
 _atom_site_fract_y
 _atom_site_fract_z
 _atom_site_occupancy
  C  C0  1  0.49755723  0.28919421  0.49852637  1
  C  C1  1  0.99808647  0.21079381  0.00136399  1
  C  C2  1  0.50339724  0.78912733  0.50169041  1
  C  C3  1  0.00274456  0.71089576  0.99838552  1
  N  N4  1  0.58103671  0.23333935  0.62083503  1
  N  N5  1  0.41699777  0.22977419  0.37725513  1
  N  N6  1  0.08143763  0.26669073  0.87910983  1
  N  N7  1  0.91739932  0.27016951  0.12268931  1
  N  N8  1  0.57900358  0.73007574  0.62563977  1
  N  N9  1  0.42260510  0.73368446  0.37730954  1
  N  N10  1  0.07858564  0.76991732  0.87445756  1
  N  N11  1  0.92218989  0.76636960  0.12277496  1
  H  H12  1  0.49471578  0.39464636  0.49758764  1
  H  H13  1  0.64408518  0.29070193  0.70614727  1
  H  H14  1  0.59291272  0.13547158  0.63409681  1
  H  H15  1  0.35181120  0.28467368  0.29094926  1
  H  H16  1  0.41009783  0.13155478  0.36536789  1
  H  H17  1  0.99546166  0.10534528  0.00233353  1
  H  H18  1  0.14454883  0.20935491  0.79376145  1
  H  H19  1  0.09310460  0.36457642  0.86579500  1
  H  H20  1  0.85226731  0.21525051  0.20895925  1
  H  H21  1  0.91028552  0.36839081  0.13452977  1
  H  H22  1  0.50836149  0.89457798  0.50211299  1
  H  H23  1  0.63942501  0.78481939  0.71466670  1
  H  H24  1  0.58473212  0.63191756  0.63846320  1
  H  H25  1  0.36623609  0.79091788  0.28887400  1
  H  H26  1  0.40852652  0.63591033  0.36365149  1
  H  H27  1  0.00731937  0.60543021  0.99774834  1
  H  H28  1  0.13885475  0.71514650  0.78537573  1
  H  H29  1  0.08467101  0.86806923  0.86183320  1
  H  H30  1  0.86566312  0.70915779  0.21117567  1
  H  H31  1  0.90846169  0.86416504  0.13664820  1
  Cu  Cu32  1  0.49956109  0.02628017  0.99804419  1
  Cu  Cu33  1  0.99938378  0.47372450  0.50191095  1
  Cu  Cu34  1  0.00024019  0.02595588  0.49843622  1
  Cu  Cu35  1  0.50017469  0.47403746  0.00164103  1
  Cl  Cl36  1  0.49962734  0.25360553  0.99956106  1
  Cl  Cl37  1  0.27753055  0.98406139  0.16535898  1
  Cl  Cl38  1  0.76793818  0.02703408  0.32031477  1
  Cl  Cl39  1  0.99941261  0.24638838  0.50064659  1
  Cl  Cl40  1  0.23359080  0.02650686  0.67532635  1
  Cl  Cl41  1  0.72172679  0.98489476  0.83020126  1
  Cl  Cl42  1  0.49894427  0.68789719  0.00146036  1
  Cl  Cl43  1  0.77731340  0.51578008  0.33455689  1
  Cl  Cl44  1  0.26781518  0.47309733  0.17970507  1
  Cl  Cl45  1  0.99921115  0.81208806  0.49840673  1
  Cl  Cl46  1  0.22149033  0.51524091  0.66973918  1
  Cl  Cl47  1  0.73347603  0.47336020  0.82468036  1
