# generated using pymatgen
data_ZnH5CN2Cl3
_symmetry_space_group_name_H-M   'P 1'
_cell_length_a   6.74434610
_cell_length_b   14.22492302
_cell_length_c   6.96430948
_cell_angle_alpha   90.00192721
_cell_angle_beta   90.00142155
_cell_angle_gamma   90.01860194
_symmetry_Int_Tables_number   1
_chemical_formula_structural   ZnH5CN2Cl3
_chemical_formula_sum   'Zn4 H20 C4 N8 Cl12'
_cell_volume   668.14052258
_cell_formula_units_Z   4
loop_
 _symmetry_equiv_pos_site_id
 _symmetry_equiv_pos_as_xyz
  1  'x, y, z'
loop_
 _atom_site_type_symbol
 _atom_site_label
 _atom_site_symmetry_multiplicity
 _atom_site_fract_x
 _atom_site_fract_y
 _atom_site_fract_z
 _atom_site_occupancy
  C  C0  1  0.42291296  0.32260103  0.47733955  1
  C  C1  1  0.92243800  0.17744727  0.02329178  1
  C  C2  1  0.57700986  0.82260947  0.52274652  1
  C  C3  1  0.07781243  0.67740654  0.97664392  1
  N  N4  1  0.42472847  0.35598305  0.65292088  1
  N  N5  1  0.45551459  0.23466490  0.43041546  1
  N  N6  1  0.92416153  0.14404009  0.84774338  1
  N  N7  1  0.95538648  0.26536568  0.07020262  1
  N  N8  1  0.54419156  0.73468314  0.56963510  1
  N  N9  1  0.57507363  0.85603548  0.34721259  1
  N  N10  1  0.04458212  0.76528530  0.92970119  1
  N  N11  1  0.07610792  0.64401769  0.15221510  1
  H  H12  1  0.39325903  0.37201898  0.36040558  1
  H  H13  1  0.38333507  0.42442737  0.67339469  1
  H  H14  1  0.44132255  0.31359749  0.77082103  1
  H  H15  1  0.45155553  0.21527961  0.28822056  1
  H  H16  1  0.47564209  0.18294121  0.52992488  1
  H  H17  1  0.89254566  0.12806352  0.14026459  1
  H  H18  1  0.88255269  0.07560618  0.82728525  1
  H  H19  1  0.94104356  0.18639866  0.72983259  1
  H  H20  1  0.95158437  0.28474160  0.21240788  1
  H  H21  1  0.97580831  0.31707300  0.97069203  1
  H  H22  1  0.60695523  0.87199756  0.63971046  1
  H  H23  1  0.54830894  0.71526045  0.71179555  1
  H  H24  1  0.52372529  0.68299343  0.47008307  1
  H  H25  1  0.61665022  0.92447346  0.32677445  1
  H  H26  1  0.55831161  0.81367812  0.22927917  1
  H  H27  1  0.10792471  0.62804353  0.85971207  1
  H  H28  1  0.04834053  0.78465128  0.78748311  1
  H  H29  1  0.02382471  0.81696615  0.02918122  1
  H  H30  1  0.11787218  0.57562098  0.17269643  1
  H  H31  1  0.05900902  0.68637004  0.27009646  1
  Zn  Zn32  1  0.42419602  0.03662840  0.92537803  1
  Zn  Zn33  1  0.92514518  0.46333179  0.57460063  1
  Zn  Zn34  1  0.07489396  0.96332251  0.42532536  1
  Zn  Zn35  1  0.57593317  0.53663633  0.07466676  1
  Cl  Cl36  1  0.44152833  0.19116059  0.98180256  1
  Cl  Cl37  1  0.17566943  0.96774889  0.10137371  1
  Cl  Cl38  1  0.80486879  0.05247282  0.44086077  1
  Cl  Cl39  1  0.94200797  0.30875229  0.51868795  1
  Cl  Cl40  1  0.32325285  0.03227435  0.60146540  1
  Cl  Cl41  1  0.69422492  0.94746779  0.94055689  1
  Cl  Cl42  1  0.55872699  0.69116705  0.01825058  1
  Cl  Cl43  1  0.67689596  0.53233451  0.39856324  1
  Cl  Cl44  1  0.30577884  0.44746899  0.05954333  1
  Cl  Cl45  1  0.05777779  0.80873555  0.48121030  1
  Cl  Cl46  1  0.19532874  0.55245772  0.55914021  1
  Cl  Cl47  1  0.82429954  0.46776112  0.89854989  1
