# generated using pymatgen
data_GaH5CN2Cl3
_symmetry_space_group_name_H-M   'P 1'
_cell_length_a   8.30169098
_cell_length_b   9.65533887
_cell_length_c   8.57171020
_cell_angle_alpha   90.00539208
_cell_angle_beta   90.00517165
_cell_angle_gamma   90.10929272
_symmetry_Int_Tables_number   1
_chemical_formula_structural   GaH5CN2Cl3
_chemical_formula_sum   'Ga4 H20 C4 N8 Cl12'
_cell_volume   687.06965782
_cell_formula_units_Z   4
loop_
 _symmetry_equiv_pos_site_id
 _symmetry_equiv_pos_as_xyz
  1  'x, y, z'
loop_
 _atom_site_type_symbol
 _atom_site_label
 _atom_site_symmetry_multiplicity
 _atom_site_fract_x
 _atom_site_fract_y
 _atom_site_fract_z
 _atom_site_occupancy
  C  C0  1  0.49824664  0.30749681  0.49333417  1
  C  C1  1  0.02638686  0.24958700  0.04619302  1
  C  C2  1  0.47322522  0.75007657  0.54626210  1
  C  C3  1  0.00200431  0.69258593  0.99277942  1
  N  N4  1  0.59604400  0.24245073  0.58820841  1
  N  N5  1  0.39237575  0.24943625  0.40002688  1
  N  N6  1  0.09033519  0.27612288  0.90956240  1
  N  N7  1  0.87403224  0.27076936  0.07991341  1
  N  N8  1  0.62607913  0.73086691  0.57946772  1
  N  N9  1  0.40928348  0.72295737  0.40978276  1
  N  N10  1  0.10827857  0.75121956  0.90037886  1
  N  N11  1  0.90449247  0.75694755  0.08849751  1
  H  H12  1  0.50599546  0.42000559  0.49064158  1
  H  H13  1  0.67421920  0.30101977  0.65530400  1
  H  H14  1  0.59971878  0.13748028  0.59744646  1
  H  H15  1  0.32380229  0.31379610  0.33049353  1
  H  H16  1  0.37170455  0.14546090  0.39865942  1
  H  H17  1  0.10253859  0.20427156  0.13594510  1
  H  H18  1  0.21091793  0.26401247  0.89314740  1
  H  H19  1  0.02532983  0.32975523  0.82730705  1
  H  H20  1  0.83245674  0.25002687  0.18896186  1
  H  H21  1  0.79856558  0.31641373  0.00085187  1
  H  H22  1  0.39663567  0.79415442  0.63642264  1
  H  H23  1  0.66774421  0.75231832  0.68833400  1
  H  H24  1  0.70223846  0.68672593  0.50001465  1
  H  H25  1  0.28840324  0.73333331  0.39386257  1
  H  H26  1  0.47488233  0.67004823  0.32732312  1
  H  H27  1  0.99350856  0.58016526  0.98825833  1
  H  H28  1  0.17644853  0.68721159  0.83010086  1
  H  H29  1  0.12969142  0.85508883  0.90056091  1
  H  H30  1  0.82588953  0.69798446  0.15467239  1
  H  H31  1  0.90151399  0.86180726  0.09943634  1
  Ga  Ga32  1  0.48253824  0.99045106  0.09420239  1
  Ga  Ga33  1  0.01621723  0.49812734  0.51702932  1
  Ga  Ga34  1  0.01835689  0.00933285  0.59429651  1
  Ga  Ga35  1  0.48094453  0.50163805  0.01695924  1
  Cl  Cl36  1  0.49716155  0.19009317  0.96802040  1
  Cl  Cl37  1  0.23736386  0.97336707  0.19355918  1
  Cl  Cl38  1  0.66535737  0.98992771  0.28058278  1
  Cl  Cl39  1  0.98266505  0.19218017  0.44295622  1
  Cl  Cl40  1  0.26354843  0.02643296  0.69350915  1
  Cl  Cl41  1  0.83519771  0.00978271  0.78030376  1
  Cl  Cl42  1  0.51828023  0.80757211  0.94292829  1
  Cl  Cl43  1  0.68952042  0.53793113  0.26264211  1
  Cl  Cl44  1  0.23722658  0.49171738  0.20504591  1
  Cl  Cl45  1  0.00340846  0.80975701  0.46782706  1
  Cl  Cl46  1  0.26041660  0.50821096  0.70426282  1
  Cl  Cl47  1  0.80882744  0.46194426  0.76382885  1
