# generated using pymatgen
data_GeH5CN2Cl3
_symmetry_space_group_name_H-M   'P 1'
_cell_length_a   7.86341871
_cell_length_b   10.86136270
_cell_length_c   7.86547168
_cell_angle_alpha   89.41162708
_cell_angle_beta   89.56563139
_cell_angle_gamma   89.39122211
_symmetry_Int_Tables_number   1
_chemical_formula_structural   GeH5CN2Cl3
_chemical_formula_sum   'Ge4 H20 C4 N8 Cl12'
_cell_volume   671.67773016
_cell_formula_units_Z   4
loop_
 _symmetry_equiv_pos_site_id
 _symmetry_equiv_pos_as_xyz
  1  'x, y, z'
loop_
 _atom_site_type_symbol
 _atom_site_label
 _atom_site_symmetry_multiplicity
 _atom_site_fract_x
 _atom_site_fract_y
 _atom_site_fract_z
 _atom_site_occupancy
  C  C0  1  0.49023474  0.29303043  0.50100653  1
  C  C1  1  0.99278783  0.21165602  0.00282828  1
  C  C2  1  0.50588670  0.79327027  0.49507109  1
  C  C3  1  0.00460373  0.71127906  0.99467241  1
  N  N4  1  0.59717797  0.24035397  0.60646618  1
  N  N5  1  0.38819689  0.23614981  0.39777277  1
  N  N6  1  0.10083633  0.26644993  0.90029058  1
  N  N7  1  0.88948499  0.26610240  0.11023757  1
  N  N8  1  0.60970757  0.73765532  0.60086785  1
  N  N9  1  0.40126533  0.73931735  0.39139052  1
  N  N10  1  0.10967929  0.76555847  0.88880376  1
  N  N11  1  0.89961017  0.76635617  0.10010452  1
  H  H12  1  0.48535967  0.39329327  0.49932576  1
  H  H13  1  0.66994297  0.29492504  0.68127919  1
  H  H14  1  0.61300952  0.14724101  0.61849226  1
  H  H15  1  0.30979718  0.28811601  0.32229644  1
  H  H16  1  0.38241768  0.14280358  0.38685023  1
  H  H17  1  0.98862665  0.11142810  0.99804348  1
  H  H18  1  0.17548435  0.21304412  0.82330797  1
  H  H19  1  0.11751648  0.35941417  0.89364876  1
  H  H20  1  0.81248438  0.21235386  0.18447408  1
  H  H21  1  0.88218423  0.35921010  0.12628595  1
  H  H22  1  0.50719875  0.89354127  0.49295124  1
  H  H23  1  0.68576677  0.79032859  0.67488624  1
  H  H24  1  0.61930278  0.64425971  0.61462985  1
  H  H25  1  0.32709361  0.79317583  0.31402288  1
  H  H26  1  0.38811780  0.64624462  0.38333812  1
  H  H27  1  0.00445061  0.61087381  0.99542856  1
  H  H28  1  0.18612038  0.71156447  0.81425908  1
  H  H29  1  0.12175218  0.85878895  0.87720375  1
  H  H30  1  0.82458881  0.71302873  0.17684220  1
  H  H31  1  0.88897618  0.85954339  0.11258677  1
  Ge  Ge32  1  0.47897362  0.00832477  0.98994164  1
  Ge  Ge33  1  0.99257473  0.50919825  0.48151590  1
  Ge  Ge34  1  0.97883208  0.00949061  0.49704071  1
  Ge  Ge35  1  0.49955109  0.50858938  0.98134012  1
  Cl  Cl36  1  0.49439837  0.22204804  0.00650399  1
  Cl  Cl37  1  0.24308214  0.98594832  0.19392129  1
  Cl  Cl38  1  0.74253259  0.01427713  0.29617481  1
  Cl  Cl39  1  0.99222906  0.22339729  0.50942598  1
  Cl  Cl40  1  0.29554378  0.01579472  0.74059058  1
  Cl  Cl41  1  0.79515573  0.98599341  0.74815400  1
  Cl  Cl42  1  0.50906431  0.72254298  0.99564360  1
  Cl  Cl43  1  0.74317301  0.51588401  0.29823351  1
  Cl  Cl44  1  0.19652656  0.48587970  0.24551541  1
  Cl  Cl45  1  0.00975735  0.72302052  0.49373105  1
  Cl  Cl46  1  0.29852058  0.51364301  0.74516642  1
  Cl  Cl47  1  0.75044181  0.48567301  0.79754085  1
