# generated using pymatgen
data_SrH5CN2Cl3
_symmetry_space_group_name_H-M   'P 1'
_cell_length_a   8.01228513
_cell_length_b   11.13489051
_cell_length_c   7.99582968
_cell_angle_alpha   89.99873234
_cell_angle_beta   89.99977096
_cell_angle_gamma   89.99832181
_symmetry_Int_Tables_number   1
_chemical_formula_structural   SrH5CN2Cl3
_chemical_formula_sum   'Sr4 H20 C4 N8 Cl12'
_cell_volume   713.35528186
_cell_formula_units_Z   4
loop_
 _symmetry_equiv_pos_site_id
 _symmetry_equiv_pos_as_xyz
  1  'x, y, z'
loop_
 _atom_site_type_symbol
 _atom_site_label
 _atom_site_symmetry_multiplicity
 _atom_site_fract_x
 _atom_site_fract_y
 _atom_site_fract_z
 _atom_site_occupancy
  C  C0  1  0.49278621  0.29349083  0.49612193  1
  C  C1  1  0.99272856  0.20660832  0.00386816  1
  C  C2  1  0.50730937  0.79339573  0.50389068  1
  C  C3  1  0.00718293  0.70651136  0.99612369  1
  N  N4  1  0.59921217  0.24058140  0.59650508  1
  N  N5  1  0.39222233  0.23914507  0.39126844  1
  N  N6  1  0.09923649  0.25954470  0.90351924  1
  N  N7  1  0.89221269  0.26096030  0.10875309  1
  N  N8  1  0.60782383  0.73904065  0.60877553  1
  N  N9  1  0.40082228  0.74046257  0.40352269  1
  N  N10  1  0.10774766  0.76085652  0.89127406  1
  N  N11  1  0.90073663  0.75941121  0.09648903  1
  H  H12  1  0.48712923  0.39129013  0.50050693  1
  H  H13  1  0.67187008  0.29188706  0.67346033  1
  H  H14  1  0.61383097  0.14971515  0.60153315  1
  H  H15  1  0.31452852  0.29006762  0.31873795  1
  H  H16  1  0.38715701  0.14811928  0.37766760  1
  H  H17  1  0.98699775  0.10882272  0.99937286  1
  H  H18  1  0.17185126  0.20825932  0.82654241  1
  H  H19  1  0.11393935  0.35039032  0.89859628  1
  H  H20  1  0.81447502  0.21001701  0.18123727  1
  H  H21  1  0.88721945  0.35197932  0.12244019  1
  H  H22  1  0.51302450  0.89118279  0.49941380  1
  H  H23  1  0.68554380  0.78998299  0.68127681  1
  H  H24  1  0.61283367  0.64802082  0.62245085  1
  H  H25  1  0.32820667  0.79174943  0.32654576  1
  H  H26  1  0.38614093  0.64961560  0.39858120  1
  H  H27  1  0.01285506  0.60870867  0.00052507  1
  H  H28  1  0.18545840  0.70993876  0.81875731  1
  H  H29  1  0.11280141  0.85188429  0.87766237  1
  H  H30  1  0.82807779  0.70810441  0.17344160  1
  H  H31  1  0.88609831  0.85027789  0.10149974  1
  Sr  Sr32  1  0.49945898  0.99995210  0.99589941  1
  Sr  Sr33  1  0.99947754  0.50005415  0.50408339  1
  Sr  Sr34  1  0.00053017  0.00005417  0.49589578  1
  Sr  Sr35  1  0.50052467  0.49995183  0.00408355  1
  Cl  Cl36  1  0.49775293  0.25001280  0.99362931  1
  Cl  Cl37  1  0.21557976  0.98384026  0.21177702  1
  Cl  Cl38  1  0.71232098  0.01999349  0.28406744  1
  Cl  Cl39  1  0.99775239  0.24999770  0.50638450  1
  Cl  Cl40  1  0.28442015  0.01617014  0.71177061  1
  Cl  Cl41  1  0.78767818  0.98000543  0.78407967  1
  Cl  Cl42  1  0.50219984  0.75000790  0.00637770  1
  Cl  Cl43  1  0.71569701  0.51615858  0.28808764  1
  Cl  Cl44  1  0.21236752  0.48003492  0.21595007  1
  Cl  Cl45  1  0.00228479  0.74999322  0.49361793  1
  Cl  Cl46  1  0.28762347  0.51995978  0.71596148  1
  Cl  Cl47  1  0.78429059  0.48385428  0.78807815  1
