# generated using pymatgen
data_H5PdCN2Cl3
_symmetry_space_group_name_H-M   'P 1'
_cell_length_a   8.64785841
_cell_length_b   7.14330849
_cell_length_c   10.44470106
_cell_angle_alpha   89.99527569
_cell_angle_beta   90.00637033
_cell_angle_gamma   89.10625373
_symmetry_Int_Tables_number   1
_chemical_formula_structural   H5PdCN2Cl3
_chemical_formula_sum   'H20 Pd4 C4 N8 Cl12'
_cell_volume   645.13580722
_cell_formula_units_Z   4
loop_
 _symmetry_equiv_pos_site_id
 _symmetry_equiv_pos_as_xyz
  1  'x, y, z'
loop_
 _atom_site_type_symbol
 _atom_site_label
 _atom_site_symmetry_multiplicity
 _atom_site_fract_x
 _atom_site_fract_y
 _atom_site_fract_z
 _atom_site_occupancy
  C  C0  1  0.49789718  0.26795201  0.48242066  1
  C  C1  1  0.99745077  0.23833102  0.01856048  1
  C  C2  1  0.50310910  0.76124822  0.51915769  1
  C  C3  1  0.00195981  0.73253373  0.98206624  1
  N  N4  1  0.50328974  0.24860839  0.60717359  1
  N  N5  1  0.36918106  0.25898621  0.41598513  1
  N  N6  1  0.00434423  0.25095614  0.89349107  1
  N  N7  1  0.86685226  0.23691563  0.08284559  1
  N  N8  1  0.63388659  0.76307932  0.58318652  1
  N  N9  1  0.49587759  0.74861543  0.39409075  1
  N  N10  1  0.13094056  0.74072073  0.91590376  1
  N  N11  1  0.99617559  0.75205623  0.10676412  1
  H  H12  1  0.60614009  0.29237100  0.43134903  1
  H  H13  1  0.60453512  0.26032592  0.65626025  1
  H  H14  1  0.40475451  0.22936077  0.65936442  1
  H  H15  1  0.36835681  0.28358879  0.31931727  1
  H  H16  1  0.26589752  0.23831032  0.46089355  1
  H  H17  1  0.10621802  0.22880772  0.07178314  1
  H  H18  1  0.10779743  0.24895150  0.84675448  1
  H  H19  1  0.90628066  0.25828232  0.83895207  1
  H  H20  1  0.86586180  0.21906042  0.18009421  1
  H  H21  1  0.76327508  0.24130693  0.03581483  1
  H  H22  1  0.39449282  0.77033821  0.57254687  1
  H  H23  1  0.63507101  0.78103895  0.68044619  1
  H  H24  1  0.73736274  0.75921156  0.53599477  1
  H  H25  1  0.39228907  0.75030771  0.34755083  1
  H  H26  1  0.59383735  0.74160664  0.33938233  1
  H  H27  1  0.89375381  0.70864565  0.93071663  1
  H  H28  1  0.13194799  0.71591957  0.81927364  1
  H  H29  1  0.23414667  0.76065612  0.96108437  1
  H  H30  1  0.89464477  0.74095215  0.15551789  1
  H  H31  1  0.09453222  0.77082746  0.15924720  1
  Pd  Pd32  1  0.50099316  0.99012803  0.00006856  1
  Pd  Pd33  1  0.00079241  0.50952102  0.49939159  1
  Pd  Pd34  1  0.99875778  0.00992116  0.49976578  1
  Pd  Pd35  1  0.49892507  0.49050289  0.99972870  1
  Cl  Cl36  1  0.37961258  0.24184165  0.90140310  1
  Cl  Cl37  1  0.31298317  0.99309840  0.15806788  1
  Cl  Cl38  1  0.80785845  0.00944422  0.34374658  1
  Cl  Cl39  1  0.87911432  0.26262833  0.59813278  1
  Cl  Cl40  1  0.18691280  0.00686220  0.65770908  1
  Cl  Cl41  1  0.69176824  0.99064283  0.84397213  1
  Cl  Cl42  1  0.62054554  0.73740433  0.09846615  1
  Cl  Cl43  1  0.81694345  0.50610562  0.33841947  1
  Cl  Cl44  1  0.31220446  0.49107216  0.15871398  1
  Cl  Cl45  1  0.12014252  0.75821920  0.40111120  1
  Cl  Cl46  1  0.18735602  0.50905385  0.65852820  1
  Cl  Cl47  1  0.68294937  0.49374431  0.83888999  1
