# generated using pymatgen
data_CdH5CN2Cl3
_symmetry_space_group_name_H-M   'P 1'
_cell_length_a   7.67695012
_cell_length_b   10.13802299
_cell_length_c   8.18689267
_cell_angle_alpha   90.03247535
_cell_angle_beta   89.96760428
_cell_angle_gamma   89.99003199
_symmetry_Int_Tables_number   1
_chemical_formula_structural   CdH5CN2Cl3
_chemical_formula_sum   'Cd4 H20 C4 N8 Cl12'
_cell_volume   637.17824858
_cell_formula_units_Z   4
loop_
 _symmetry_equiv_pos_site_id
 _symmetry_equiv_pos_as_xyz
  1  'x, y, z'
loop_
 _atom_site_type_symbol
 _atom_site_label
 _atom_site_symmetry_multiplicity
 _atom_site_fract_x
 _atom_site_fract_y
 _atom_site_fract_z
 _atom_site_occupancy
  C  C0  1  0.48687535  0.27967455  0.51595029  1
  C  C1  1  0.98668321  0.22052505  0.98394505  1
  C  C2  1  0.51346587  0.78003328  0.48416302  1
  C  C3  1  0.01330325  0.71983816  0.01567487  1
  N  N4  1  0.61489968  0.23417735  0.60551806  1
  N  N5  1  0.44209824  0.23141248  0.37372491  1
  N  N6  1  0.11500654  0.26586134  0.89452016  1
  N  N7  1  0.94185804  0.26872294  0.12625109  1
  N  N8  1  0.55800291  0.73150781  0.62625893  1
  N  N9  1  0.38532870  0.73493194  0.39439664  1
  N  N10  1  0.05789256  0.76855103  0.87364311  1
  N  N11  1  0.88528261  0.76497326  0.10571915  1
  H  H12  1  0.41172345  0.36272636  0.56391183  1
  H  H13  1  0.63557777  0.27207821  0.71938765  1
  H  H14  1  0.68923098  0.15630413  0.56886229  1
  H  H15  1  0.34823542  0.27875000  0.30770491  1
  H  H16  1  0.51095723  0.15668795  0.32013765  1
  H  H17  1  0.91133396  0.13767861  0.93583360  1
  H  H18  1  0.13568077  0.22813533  0.78053208  1
  H  H19  1  0.18956053  0.34350753  0.93139587  1
  H  H20  1  0.84783356  0.22147323  0.19222889  1
  H  H21  1  0.01086536  0.34325899  0.17996101  1
  H  H22  1  0.58893263  0.86296278  0.43648327  1
  H  H23  1  0.65198639  0.77853218  0.69248311  1
  H  H24  1  0.48900498  0.65677139  0.67950674  1
  H  H25  1  0.36502556  0.77282939  0.28050799  1
  H  H26  1  0.31081273  0.65708444  0.43066764  1
  H  H27  1  0.08866406  0.63674766  0.06305428  1
  H  H28  1  0.15170879  0.72145774  0.80715034  1
  H  H29  1  0.98886906  0.84335335  0.82060646  1
  H  H30  1  0.86481092  0.72681785  0.21946646  1
  H  H31  1  0.81084188  0.84294876  0.06972530  1
  Cd  Cd32  1  0.45405243  0.99538719  0.93810022  1
  Cd  Cd33  1  0.95499316  0.50448371  0.56175628  1
  Cd  Cd34  1  0.04484786  0.00444567  0.43811916  1
  Cd  Cd35  1  0.54544884  0.49540886  0.06217259  1
  Cl  Cl36  1  0.52637223  0.24306734  0.99070269  1
  Cl  Cl37  1  0.23385291  0.99873970  0.17904970  1
  Cl  Cl38  1  0.74974180  0.02469674  0.29670052  1
  Cl  Cl39  1  0.02647111  0.25689410  0.50932615  1
  Cl  Cl40  1  0.26553124  0.00142202  0.67920178  1
  Cl  Cl41  1  0.74974628  0.97522024  0.79789924  1
  Cl  Cl42  1  0.47330578  0.74254783  0.00919946  1
  Cl  Cl43  1  0.73414671  0.50142152  0.32117044  1
  Cl  Cl44  1  0.24983878  0.47531152  0.20344418  1
  Cl  Cl45  1  0.97334032  0.75729688  0.49094233  1
  Cl  Cl46  1  0.25020053  0.52481869  0.70241670  1
  Cl  Cl47  1  0.76577635  0.49858586  0.82053065  1
