# generated using pymatgen
data_InH5CN2Cl3
_symmetry_space_group_name_H-M   'P 1'
_cell_length_a   7.92276250
_cell_length_b   10.82874454
_cell_length_c   7.91837658
_cell_angle_alpha   90.05072602
_cell_angle_beta   89.99945942
_cell_angle_gamma   90.00360731
_symmetry_Int_Tables_number   1
_chemical_formula_structural   InH5CN2Cl3
_chemical_formula_sum   'In4 H20 C4 N8 Cl12'
_cell_volume   679.34553672
_cell_formula_units_Z   4
loop_
 _symmetry_equiv_pos_site_id
 _symmetry_equiv_pos_as_xyz
  1  'x, y, z'
loop_
 _atom_site_type_symbol
 _atom_site_label
 _atom_site_symmetry_multiplicity
 _atom_site_fract_x
 _atom_site_fract_y
 _atom_site_fract_z
 _atom_site_occupancy
  C  C0  1  0.49742396  0.29084690  0.49790857  1
  C  C1  1  0.99743118  0.20924255  0.00209112  1
  C  C2  1  0.50391687  0.79056111  0.50110254  1
  C  C3  1  0.00385896  0.70936843  0.99891511  1
  N  N4  1  0.60425766  0.23677676  0.60014140  1
  N  N5  1  0.39273150  0.23500858  0.39509647  1
  N  N6  1  0.10431594  0.26331618  0.89988300  1
  N  N7  1  0.89275983  0.26506317  0.10488763  1
  N  N8  1  0.60365523  0.73430812  0.60817410  1
  N  N9  1  0.39833430  0.73696627  0.39695894  1
  N  N10  1  0.10361427  0.76563081  0.89184966  1
  N  N11  1  0.89825888  0.76293576  0.10303191  1
  H  H12  1  0.49537824  0.39144229  0.49836588  1
  H  H13  1  0.68224637  0.29060995  0.67181898  1
  H  H14  1  0.61248150  0.14336299  0.61562590  1
  H  H15  1  0.31276464  0.28780254  0.32431641  1
  H  H16  1  0.38746841  0.14151555  0.37882047  1
  H  H17  1  0.99535189  0.10864048  0.00158703  1
  H  H18  1  0.18229105  0.20949560  0.82819913  1
  H  H19  1  0.11257066  0.35673513  0.88443286  1
  H  H20  1  0.81275499  0.21227624  0.17565048  1
  H  H21  1  0.88752530  0.35856265  0.12120262  1
  H  H22  1  0.50962975  0.89105720  0.49821266  1
  H  H23  1  0.67756654  0.78678936  0.68574711  1
  H  H24  1  0.61467058  0.64061816  0.61748908  1
  H  H25  1  0.32958515  0.79099418  0.31671613  1
  H  H26  1  0.37761998  0.64391877  0.39289806  1
  H  H27  1  0.00958965  0.60886893  0.00180302  1
  H  H28  1  0.17754585  0.71316322  0.81429382  1
  H  H29  1  0.11461800  0.85932494  0.88253908  1
  H  H30  1  0.82950898  0.70889430  0.18327177  1
  H  H31  1  0.87753081  0.85598538  0.10710180  1
  In  In32  1  0.49951326  0.99998220  0.99747148  1
  In  In33  1  0.99952810  0.50001365  0.50253074  1
  In  In34  1  0.00026727  0.00004940  0.49668484  1
  In  In35  1  0.50027909  0.49994412  0.00330659  1
  Cl  Cl36  1  0.49960317  0.23084564  0.99743699  1
  Cl  Cl37  1  0.24199441  0.98772913  0.19983221  1
  Cl  Cl38  1  0.70169188  0.01264672  0.25575537  1
  Cl  Cl39  1  0.99956630  0.26915529  0.50257478  1
  Cl  Cl40  1  0.29841490  0.01201858  0.73930515  1
  Cl  Cl41  1  0.75816344  0.98760951  0.79628428  1
  Cl  Cl42  1  0.50070641  0.76912848  0.00092040  1
  Cl  Cl43  1  0.74199454  0.51226877  0.30017675  1
  Cl  Cl44  1  0.20168029  0.48734461  0.24422057  1
  Cl  Cl45  1  0.00075976  0.73086229  0.49906517  1
  Cl  Cl46  1  0.25818191  0.51240173  0.70371056  1
  Cl  Cl47  1  0.79841770  0.48798033  0.76069614  1
