# generated using pymatgen
data_CdH6CI3N
_symmetry_space_group_name_H-M   'P 1'
_cell_length_a   8.10729913
_cell_length_b   11.99198114
_cell_length_c   8.40292261
_cell_angle_alpha   89.99993300
_cell_angle_beta   90.00056626
_cell_angle_gamma   90.00088985
_symmetry_Int_Tables_number   1
_chemical_formula_structural   CdH6CI3N
_chemical_formula_sum   'Cd4 H24 C4 I12 N4'
_cell_volume   816.95380130
_cell_formula_units_Z   4
loop_
 _symmetry_equiv_pos_site_id
 _symmetry_equiv_pos_as_xyz
  1  'x, y, z'
loop_
 _atom_site_type_symbol
 _atom_site_label
 _atom_site_symmetry_multiplicity
 _atom_site_fract_x
 _atom_site_fract_y
 _atom_site_fract_z
 _atom_site_occupancy
  C  C0  1  0.42169875  0.24995589  0.40324377  1
  C  C1  1  0.92174457  0.24997237  0.09689060  1
  C  C2  1  0.57831270  0.75002804  0.59680143  1
  C  C3  1  0.07827037  0.75002213  0.90314699  1
  N  N4  1  0.54370648  0.25000474  0.53441380  1
  N  N5  1  0.04368970  0.25000775  0.96565775  1
  N  N6  1  0.45628553  0.74998391  0.46564000  1
  N  N7  1  0.95630665  0.74997910  0.03436312  1
  H  H8  1  0.48864647  0.24997879  0.29020334  1
  H  H9  1  0.34557231  0.17501757  0.41259879  1
  H  H10  1  0.34554346  0.32497166  0.41258897  1
  H  H11  1  0.61916019  0.18024965  0.52613999  1
  H  H12  1  0.61914350  0.31972502  0.52613612  1
  H  H13  1  0.49022354  0.24999323  0.64732037  1
  H  H14  1  0.98873317  0.24997885  0.20988394  1
  H  H15  1  0.84558923  0.17501094  0.08756156  1
  H  H16  1  0.84557801  0.32497181  0.08757284  1
  H  H17  1  0.11913334  0.18024860  0.97390296  1
  H  H18  1  0.11911820  0.31971865  0.97390876  1
  H  H19  1  0.99014463  0.24999463  0.85277845  1
  H  H20  1  0.51135922  0.75000187  0.70985464  1
  H  H21  1  0.65446335  0.67501804  0.58745714  1
  H  H22  1  0.65442915  0.82496808  0.58745093  1
  H  H23  1  0.38083499  0.81973084  0.47391756  1
  H  H24  1  0.38085267  0.68026024  0.47392297  1
  H  H25  1  0.50977011  0.74999616  0.35273653  1
  H  H26  1  0.01127297  0.75000554  0.79012320  1
  H  H27  1  0.15439455  0.82497875  0.91246942  1
  H  H28  1  0.15442142  0.67502777  0.91246240  1
  H  H29  1  0.88083675  0.81973838  0.02610418  1
  H  H30  1  0.88087075  0.68026190  0.02609712  1
  H  H31  1  0.00982186  0.75000003  0.14723876  1
  Cd  Cd32  1  0.49999584  0.00006029  0.99990793  1
  Cd  Cd33  1  0.00009639  0.50001712  0.49977742  1
  Cd  Cd34  1  0.00001646  0.00010348  0.49995156  1
  Cd  Cd35  1  0.50009809  0.50006463  0.00000515  1
  I  I36  1  0.48767179  0.25002023  0.94996260  1
  I  I37  1  0.19078178  0.00697618  0.17571443  1
  I  I38  1  0.69074900  0.00696775  0.32429614  1
  I  I39  1  0.98766279  0.25001706  0.55008992  1
  I  I40  1  0.30923957  0.99301471  0.67572110  1
  I  I41  1  0.80926658  0.99302594  0.82429517  1
  I  I42  1  0.51231421  0.75002109  0.05006740  1
  I  I43  1  0.69071262  0.49301294  0.32432834  1
  I  I44  1  0.19076249  0.49301470  0.17565331  1
  I  I45  1  0.01232912  0.75002128  0.44992577  1
  I  I46  1  0.30916174  0.50697146  0.67574593  1
  I  I47  1  0.80923665  0.50696850  0.82426604  1
