# generated using pymatgen
data_CaH12PdC2(I3N)2
_symmetry_space_group_name_H-M   'P 1'
_cell_length_a   8.05162204
_cell_length_b   13.17823264
_cell_length_c   7.94645521
_cell_angle_alpha   87.55456149
_cell_angle_beta   89.99736613
_cell_angle_gamma   90.02217737
_symmetry_Int_Tables_number   1
_chemical_formula_structural   CaH12PdC2(I3N)2
_chemical_formula_sum   'Ca2 H24 Pd2 C4 I12 N4'
_cell_volume   842.39982370
_cell_formula_units_Z   2
loop_
 _symmetry_equiv_pos_site_id
 _symmetry_equiv_pos_as_xyz
  1  'x, y, z'
loop_
 _atom_site_type_symbol
 _atom_site_label
 _atom_site_symmetry_multiplicity
 _atom_site_fract_x
 _atom_site_fract_y
 _atom_site_fract_z
 _atom_site_occupancy
  C  C0  1  0.39932641  0.25218715  0.41256577  1
  C  C1  1  0.90024644  0.24792551  0.08805807  1
  C  C2  1  0.60067260  0.74781796  0.58744549  1
  C  C3  1  0.09975838  0.75207768  0.91195548  1
  N  N4  1  0.55123285  0.24775191  0.51726279  1
  N  N5  1  0.05171326  0.25221645  0.98268984  1
  N  N6  1  0.44876582  0.75225457  0.48275018  1
  N  N7  1  0.94828985  0.74778318  0.01732137  1
  H  H8  1  0.43533671  0.25424886  0.27956229  1
  H  H9  1  0.32333748  0.18498516  0.44286586  1
  H  H10  1  0.33041690  0.32091884  0.44014705  1
  H  H11  1  0.62179370  0.18391103  0.49280061  1
  H  H12  1  0.62621018  0.31064754  0.49273952  1
  H  H13  1  0.52391921  0.24455924  0.64684759  1
  H  H14  1  0.93681994  0.24592437  0.22089568  1
  H  H15  1  0.83099542  0.17921682  0.06091899  1
  H  H16  1  0.82433162  0.31516136  0.05800493  1
  H  H17  1  0.12659939  0.18929730  0.00699204  1
  H  H18  1  0.12253956  0.31603920  0.00678963  1
  H  H19  1  0.02386782  0.25537583  0.85322398  1
  H  H20  1  0.56466333  0.74575288  0.72045019  1
  H  H21  1  0.66958117  0.67908261  0.55986224  1
  H  H22  1  0.67666210  0.81501611  0.55714758  1
  H  H23  1  0.37820945  0.81609533  0.50721443  1
  H  H24  1  0.37378394  0.68935946  0.50727172  1
  H  H25  1  0.47607863  0.75544735  0.35316573  1
  H  H26  1  0.06318718  0.75408000  0.77911801  1
  H  H27  1  0.16900545  0.82078685  0.93909859  1
  H  H28  1  0.17567484  0.68484329  0.94200825  1
  H  H29  1  0.87340054  0.81070114  0.99301986  1
  H  H30  1  0.87746651  0.68395926  0.99321903  1
  H  H31  1  0.97613364  0.74462364  0.14678765  1
  Ca  Ca32  1  0.50000182  0.00000207  0.00000741  1
  Ca  Ca33  1  0.99999945  0.50000142  0.50000485  1
  Pd  Pd34  1  0.00000040  0.00000165  0.50000661  1
  Pd  Pd35  1  0.49999882  0.50000171  0.00000441  1
  I  I36  1  0.47589033  0.22623935  0.94225864  1
  I  I37  1  0.15396916  0.00868844  0.20135101  1
  I  I38  1  0.70523490  0.01617448  0.34696623  1
  I  I39  1  0.97514012  0.27381306  0.55813817  1
  I  I40  1  0.29476528  0.98383201  0.65304855  1
  I  I41  1  0.84603277  0.99131312  0.79866248  1
  I  I42  1  0.52411468  0.77376476  0.05775454  1
  I  I43  1  0.65395555  0.49128038  0.29864454  1
  I  I44  1  0.20521063  0.48381821  0.15303055  1
  I  I45  1  0.02485933  0.72619017  0.44187570  1
  I  I46  1  0.34604336  0.50872476  0.70136434  1
  I  I47  1  0.79478680  0.51618479  0.84697811  1
