# generated using pymatgen
data_SnH5CN2Cl3
_symmetry_space_group_name_H-M   'P 1'
_cell_length_a   7.95550063
_cell_length_b   10.94335199
_cell_length_c   7.94774352
_cell_angle_alpha   90.00190697
_cell_angle_beta   90.00071317
_cell_angle_gamma   90.00470577
_symmetry_Int_Tables_number   1
_chemical_formula_structural   SnH5CN2Cl3
_chemical_formula_sum   'Sn4 H20 C4 N8 Cl12'
_cell_volume   691.92930482
_cell_formula_units_Z   4
loop_
 _symmetry_equiv_pos_site_id
 _symmetry_equiv_pos_as_xyz
  1  'x, y, z'
loop_
 _atom_site_type_symbol
 _atom_site_label
 _atom_site_symmetry_multiplicity
 _atom_site_fract_x
 _atom_site_fract_y
 _atom_site_fract_z
 _atom_site_occupancy
  C  C0  1  0.49425266  0.29123465  0.49706336  1
  C  C1  1  0.99426454  0.20887074  0.00293626  1
  C  C2  1  0.50583763  0.79113550  0.50300451  1
  C  C3  1  0.00570345  0.70877405  0.99705859  1
  N  N4  1  0.60018354  0.23752045  0.59931414  1
  N  N5  1  0.39240851  0.23611059  0.39218506  1
  N  N6  1  0.10023296  0.26258312  0.90071520  1
  N  N7  1  0.89244775  0.26398453  0.10781989  1
  N  N8  1  0.60760189  0.73601535  0.60784012  1
  N  N9  1  0.39983104  0.73741537  0.40071452  1
  N  N10  1  0.10753777  0.76389638  0.89218113  1
  N  N11  1  0.89974906  0.76247773  0.09928736  1
  H  H12  1  0.49030297  0.39074760  0.49969359  1
  H  H13  1  0.67342680  0.29050054  0.67565991  1
  H  H14  1  0.61442302  0.14509677  0.60751094  1
  H  H15  1  0.31545232  0.28844514  0.31869077  1
  H  H16  1  0.38506262  0.14350584  0.37885587  1
  H  H17  1  0.99026168  0.10935271  0.00025703  1
  H  H18  1  0.17344848  0.20961612  0.82434877  1
  H  H19  1  0.11451820  0.35501170  0.89255013  1
  H  H20  1  0.81544360  0.21165741  0.18128438  1
  H  H21  1  0.88513586  0.35659458  0.12117822  1
  H  H22  1  0.50980599  0.89064809  0.50031671  1
  H  H23  1  0.68461217  0.78833779  0.68134522  1
  H  H24  1  0.61493144  0.64340029  0.62120446  1
  H  H25  1  0.32663541  0.79039365  0.32437211  1
  H  H26  1  0.38556839  0.64500153  0.39255135  1
  H  H27  1  0.00968325  0.60925792  0.99970524  1
  H  H28  1  0.18451577  0.71156841  0.81869853  1
  H  H29  1  0.11485503  0.85650307  0.87884040  1
  H  H30  1  0.82651382  0.70949879  0.17563184  1
  H  H31  1  0.88547722  0.85490532  0.10746793  1
  Sn  Sn32  1  0.49914690  0.99989366  0.99878543  1
  Sn  Sn33  1  0.99917771  0.50011894  0.50126441  1
  Sn  Sn34  1  0.00084135  0.00011842  0.49877550  1
  Sn  Sn35  1  0.50083028  0.49989424  0.00127188  1
  Cl  Cl36  1  0.49681313  0.24971988  0.99645321  1
  Cl  Cl37  1  0.22777488  0.98495394  0.21619854  1
  Cl  Cl38  1  0.71627352  0.01532302  0.27187472  1
  Cl  Cl39  1  0.99678611  0.25027011  0.50359573  1
  Cl  Cl40  1  0.27221900  0.01505427  0.71617497  1
  Cl  Cl41  1  0.78371736  0.98467742  0.77189726  1
  Cl  Cl42  1  0.50315945  0.74970950  0.00358329  1
  Cl  Cl43  1  0.72767756  0.51505458  0.28369896  1
  Cl  Cl44  1  0.21638109  0.48469466  0.22806177  1
  Cl  Cl45  1  0.00323608  0.75025975  0.49641878  1
  Cl  Cl46  1  0.28357711  0.51530868  0.72803465  1
  Cl  Cl47  1  0.77228295  0.48495016  0.78373211  1
