# generated using pymatgen
data_BaH5CN2Cl3
_symmetry_space_group_name_H-M   'P 1'
_cell_length_a   8.18922580
_cell_length_b   11.91308093
_cell_length_c   8.15521267
_cell_angle_alpha   89.99758399
_cell_angle_beta   89.99775581
_cell_angle_gamma   89.99746841
_symmetry_Int_Tables_number   1
_chemical_formula_structural   BaH5CN2Cl3
_chemical_formula_sum   'Ba4 H20 C4 N8 Cl12'
_cell_volume   795.61365515
_cell_formula_units_Z   4
loop_
 _symmetry_equiv_pos_site_id
 _symmetry_equiv_pos_as_xyz
  1  'x, y, z'
loop_
 _atom_site_type_symbol
 _atom_site_label
 _atom_site_symmetry_multiplicity
 _atom_site_fract_x
 _atom_site_fract_y
 _atom_site_fract_z
 _atom_site_occupancy
  C  C0  1  0.50196405  0.31609911  0.52075857  1
  C  C1  1  0.00189278  0.18394246  0.97915109  1
  C  C2  1  0.49810084  0.81608112  0.47920471  1
  C  C3  1  0.99800368  0.68385676  0.02081537  1
  N  N4  1  0.63243504  0.27625980  0.59407950  1
  N  N5  1  0.44265841  0.27774949  0.38226183  1
  N  N6  1  0.13245033  0.22377347  0.90591457  1
  N  N7  1  0.94257719  0.22220856  0.11766894  1
  N  N8  1  0.55737670  0.77781005  0.61778274  1
  N  N9  1  0.36759126  0.77627274  0.40596503  1
  N  N10  1  0.05740760  0.72231252  0.88240138  1
  N  N11  1  0.86753345  0.72366853  0.09415156  1
  H  H12  1  0.43925454  0.38671057  0.57914554  1
  H  H13  1  0.67422627  0.31362760  0.69925493  1
  H  H14  1  0.70496117  0.21689043  0.54058938  1
  H  H15  1  0.34443551  0.31728007  0.32958729  1
  H  H16  1  0.49845315  0.21385692  0.31966779  1
  H  H17  1  0.93915838  0.11340370  0.92062329  1
  H  H18  1  0.17422684  0.18645252  0.80070191  1
  H  H19  1  0.20498140  0.28308429  0.95950436  1
  H  H20  1  0.84429509  0.18268499  0.17025531  1
  H  H21  1  0.99838397  0.28602636  0.18041305  1
  H  H22  1  0.56090027  0.88661063  0.42070035  1
  H  H23  1  0.65564332  0.81732984  0.67038038  1
  H  H24  1  0.50152222  0.71400138  0.68049762  1
  H  H25  1  0.32586204  0.81357281  0.30070906  1
  H  H26  1  0.29497317  0.71699179  0.45955130  1
  H  H27  1  0.06065777  0.61317954  0.07909742  1
  H  H28  1  0.15562940  0.68279453  0.82970268  1
  H  H29  1  0.00166686  0.78626563  0.81989378  1
  H  H30  1  0.82564948  0.68620425  0.19922941  1
  H  H31  1  0.79505819  0.78310102  0.04073477  1
  Ba  Ba32  1  0.49041780  0.00740626  0.96734213  1
  Ba  Ba33  1  0.99056943  0.49259528  0.53260627  1
  Ba  Ba34  1  0.00948781  0.99258469  0.46732664  1
  Ba  Ba35  1  0.50953932  0.50739941  0.03258439  1
  Cl  Cl36  1  0.50977661  0.25773708  0.98830736  1
  Cl  Cl37  1  0.18132022  0.95891074  0.15056181  1
  Cl  Cl38  1  0.68344396  0.05326145  0.29358942  1
  Cl  Cl39  1  0.00972105  0.24225043  0.51161400  1
  Cl  Cl40  1  0.31854535  0.04107119  0.65059957  1
  Cl  Cl41  1  0.81649982  0.94676076  0.79363278  1
  Cl  Cl42  1  0.49026130  0.75774808  0.01175003  1
  Cl  Cl43  1  0.68150353  0.54105762  0.34929683  1
  Cl  Cl44  1  0.18353870  0.44667901  0.20634323  1
  Cl  Cl45  1  0.99031293  0.74225913  0.48843569  1
  Cl  Cl46  1  0.31652621  0.55331680  0.70639749  1
  Cl  Cl47  1  0.81862492  0.45892156  0.84932220  1
