# generated using pymatgen
data_H5PtCN2Cl3
_symmetry_space_group_name_H-M   'P 1'
_cell_length_a   9.66552001
_cell_length_b   7.27717456
_cell_length_c   8.92432007
_cell_angle_alpha   90.03310889
_cell_angle_beta   90.00128306
_cell_angle_gamma   90.01513539
_symmetry_Int_Tables_number   1
_chemical_formula_structural   H5PtCN2Cl3
_chemical_formula_sum   'H20 Pt4 C4 N8 Cl12'
_cell_volume   627.71580925
_cell_formula_units_Z   4
loop_
 _symmetry_equiv_pos_site_id
 _symmetry_equiv_pos_as_xyz
  1  'x, y, z'
loop_
 _atom_site_type_symbol
 _atom_site_label
 _atom_site_symmetry_multiplicity
 _atom_site_fract_x
 _atom_site_fract_y
 _atom_site_fract_z
 _atom_site_occupancy
  C  C0  1  0.50265695  0.25938431  0.51097553  1
  C  C1  1  0.00248708  0.24094621  0.98902189  1
  C  C2  1  0.49757570  0.75997389  0.48907816  1
  C  C3  1  0.99745492  0.74000874  0.01099277  1
  N  N4  1  0.63831813  0.25668075  0.50713141  1
  N  N5  1  0.42348518  0.23568231  0.39300290  1
  N  N6  1  0.13816924  0.24312909  0.99278444  1
  N  N7  1  0.92341559  0.26419649  0.10710562  1
  N  N8  1  0.57662949  0.73632815  0.60712021  1
  N  N9  1  0.36191165  0.75688704  0.49269573  1
  N  N10  1  0.07652770  0.76382359  0.89299492  1
  N  N11  1  0.86178916  0.74301339  0.00733259  1
  H  H12  1  0.45251443  0.28281787  0.61898555  1
  H  H13  1  0.69561053  0.28155630  0.60123917  1
  H  H14  1  0.68984519  0.23652805  0.40876002  1
  H  H15  1  0.31839542  0.24052162  0.40242711  1
  H  H16  1  0.46529764  0.21358527  0.28937250  1
  H  H17  1  0.95223617  0.21840734  0.88090106  1
  H  H18  1  0.19533505  0.21853894  0.89856733  1
  H  H19  1  0.18977769  0.26246095  0.09119191  1
  H  H20  1  0.81830536  0.25985893  0.09768122  1
  H  H21  1  0.96529879  0.28543071  0.21080842  1
  H  H22  1  0.54783981  0.78374990  0.38117626  1
  H  H23  1  0.68171782  0.74164043  0.59785852  1
  H  H24  1  0.53473295  0.71390906  0.71063361  1
  H  H25  1  0.30472656  0.78155480  0.39851844  1
  H  H26  1  0.31027560  0.73634591  0.59092082  1
  H  H27  1  0.04768759  0.71612563  0.11889468  1
  H  H28  1  0.18162329  0.75884022  0.90229631  1
  H  H29  1  0.03464029  0.78628238  0.78947957  1
  H  H30  1  0.80456755  0.71809030  0.10144476  1
  H  H31  1  0.81018628  0.76371222  0.90911340  1
  Pt  Pt32  1  0.50176635  0.00668015  0.99863290  1
  Pt  Pt33  1  0.00181218  0.49334236  0.50132295  1
  Pt  Pt34  1  0.99809173  0.99333555  0.49871065  1
  Pt  Pt35  1  0.49805652  0.50667857  0.00121799  1
  Cl  Cl36  1  0.61459396  0.25855017  0.90099100  1
  Cl  Cl37  1  0.14499598  0.99501645  0.29460731  1
  Cl  Cl38  1  0.65430146  0.00587505  0.19906292  1
  Cl  Cl39  1  0.11462299  0.24154309  0.59895642  1
  Cl  Cl40  1  0.35464547  0.00498607  0.79470407  1
  Cl  Cl41  1  0.84584085  0.99410116  0.69939102  1
  Cl  Cl42  1  0.38524374  0.75859884  0.09887761  1
  Cl  Cl43  1  0.64490398  0.50491236  0.20536658  1
  Cl  Cl44  1  0.15431973  0.49405966  0.30088634  1
  Cl  Cl45  1  0.88527677  0.74131930  0.40106169  1
  Cl  Cl46  1  0.34579836  0.50595157  0.80053749  1
  Cl  Cl47  1  0.85471449  0.49510185  0.70527098  1
