# generated using pymatgen
data_H5AuCN2Cl3
_symmetry_space_group_name_H-M   'P 1'
_cell_length_a   7.34186052
_cell_length_b   10.55603134
_cell_length_c   8.33887618
_cell_angle_alpha   90.22262926
_cell_angle_beta   90.00075456
_cell_angle_gamma   90.00173071
_symmetry_Int_Tables_number   1
_chemical_formula_structural   H5AuCN2Cl3
_chemical_formula_sum   'H20 Au4 C4 N8 Cl12'
_cell_volume   646.26561075
_cell_formula_units_Z   4
loop_
 _symmetry_equiv_pos_site_id
 _symmetry_equiv_pos_as_xyz
  1  'x, y, z'
loop_
 _atom_site_type_symbol
 _atom_site_label
 _atom_site_symmetry_multiplicity
 _atom_site_fract_x
 _atom_site_fract_y
 _atom_site_fract_z
 _atom_site_occupancy
  C  C0  1  0.49777449  0.28678287  0.49790220  1
  C  C1  1  0.99752587  0.21325049  0.00215821  1
  C  C2  1  0.50366126  0.78973936  0.50297047  1
  C  C3  1  0.00373527  0.71022148  0.99699683  1
  N  N4  1  0.58233021  0.23166112  0.61695538  1
  N  N5  1  0.41498243  0.22951803  0.37896460  1
  N  N6  1  0.08216442  0.26831991  0.88308476  1
  N  N7  1  0.91477817  0.27055258  0.12111511  1
  N  N8  1  0.58578722  0.73209117  0.62144033  1
  N  N9  1  0.41620355  0.73530748  0.38448763  1
  N  N10  1  0.08583709  0.76786819  0.87851621  1
  N  N11  1  0.91627492  0.76465340  0.11547107  1
  H  H12  1  0.49606111  0.38996378  0.49774463  1
  H  H13  1  0.64672889  0.28695067  0.70029364  1
  H  H14  1  0.59286792  0.13594906  0.63019790  1
  H  H15  1  0.34937186  0.28340162  0.29548063  1
  H  H16  1  0.40731058  0.13358284  0.36561131  1
  H  H17  1  0.99567118  0.11007909  0.00230702  1
  H  H18  1  0.14650019  0.21303030  0.79979215  1
  H  H19  1  0.09281796  0.36404401  0.86988651  1
  H  H20  1  0.84915271  0.21671989  0.20456715  1
  H  H21  1  0.90724654  0.36650844  0.13446308  1
  H  H22  1  0.50876781  0.89281470  0.50305777  1
  H  H23  1  0.65287560  0.78577991  0.70492909  1
  H  H24  1  0.59067885  0.63609526  0.63341386  1
  H  H25  1  0.35333094  0.79113386  0.30114252  1
  H  H26  1  0.40246061  0.63959913  0.37262362  1
  H  H27  1  0.00887272  0.60714658  0.99693056  1
  H  H28  1  0.15293540  0.71417190  0.79503807  1
  H  H29  1  0.09070769  0.86385761  0.86651878  1
  H  H30  1  0.85340616  0.70882573  0.19882466  1
  H  H31  1  0.90249831  0.86036398  0.12731224  1
  Au  Au32  1  0.49994916  0.97958851  0.99867518  1
  Au  Au33  1  -0.00002992  0.52041476  0.50132336  1
  Au  Au34  1  1.00000119  0.02251237  0.49863481  1
  Au  Au35  1  0.49997661  0.47750239  0.00134520  1
  Cl  Cl36  1  0.49928480  0.25440237  0.99882929  1
  Cl  Cl37  1  0.26159166  0.97715947  0.17875665  1
  Cl  Cl38  1  0.76156202  0.02184954  0.31176056  1
  Cl  Cl39  1  0.99940268  0.24560885  0.50111532  1
  Cl  Cl40  1  0.23879300  0.02214979  0.68504067  1
  Cl  Cl41  1  0.73848863  0.97835539  0.81859770  1
  Cl  Cl42  1  0.49962648  0.70040367  0.00257242  1
  Cl  Cl43  1  0.76160064  0.52290066  0.32124606  1
  Cl  Cl44  1  0.26154987  0.47814743  0.18822557  1
  Cl  Cl45  1  0.99959207  0.79961373  0.49743054  1
  Cl  Cl46  1  0.23852688  0.52158350  0.68138694  1
  Cl  Cl47  1  0.73878564  0.47788611  0.81496649  1
