# generated using pymatgen
data_HgH5CN2Cl3
_symmetry_space_group_name_H-M   'P 1'
_cell_length_a   6.67357415
_cell_length_b   12.71332287
_cell_length_c   8.19605934
_cell_angle_alpha   90.01359428
_cell_angle_beta   89.99695136
_cell_angle_gamma   89.99729126
_symmetry_Int_Tables_number   1
_chemical_formula_structural   HgH5CN2Cl3
_chemical_formula_sum   'Hg4 H20 C4 N8 Cl12'
_cell_volume   695.38072329
_cell_formula_units_Z   4
loop_
 _symmetry_equiv_pos_site_id
 _symmetry_equiv_pos_as_xyz
  1  'x, y, z'
loop_
 _atom_site_type_symbol
 _atom_site_label
 _atom_site_symmetry_multiplicity
 _atom_site_fract_x
 _atom_site_fract_y
 _atom_site_fract_z
 _atom_site_occupancy
  C  C0  1  0.47028236  0.32840294  0.47144435  1
  C  C1  1  0.97032298  0.17160175  0.02853374  1
  C  C2  1  0.52981770  0.82840804  0.52846717  1
  C  C3  1  0.02962922  0.67157302  0.97156360  1
  N  N4  1  0.51926768  0.32508175  0.62632363  1
  N  N5  1  0.52497930  0.25955197  0.36133254  1
  N  N6  1  0.01931479  0.17494540  0.87365308  1
  N  N7  1  0.02496509  0.24043756  0.13866365  1
  N  N8  1  0.47516871  0.75959462  0.63861397  1
  N  N9  1  0.48067478  0.82505560  0.37362583  1
  N  N10  1  0.97507917  0.74033621  0.86134142  1
  N  N11  1  0.98041866  0.67501413  0.12640498  1
  H  H12  1  0.37964156  0.39478216  0.43138076  1
  H  H13  1  0.46958900  0.38408970  0.70016326  1
  H  H14  1  0.60908702  0.26906819  0.67649841  1
  H  H15  1  0.48282436  0.26750393  0.24162053  1
  H  H16  1  0.60949272  0.19456164  0.38878469  1
  H  H17  1  0.87971252  0.10519962  0.06856672  1
  H  H18  1  0.96967843  0.11594552  0.79978764  1
  H  H19  1  0.10911794  0.23097884  0.82349680  1
  H  H20  1  0.98279910  0.23246539  0.25837099  1
  H  H21  1  0.10943396  0.30544882  0.11124038  1
  H  H22  1  0.62055488  0.89476525  0.56848935  1
  H  H23  1  0.51744228  0.76757073  0.75829477  1
  H  H24  1  0.39058486  0.69462311  0.61119995  1
  H  H25  1  0.53027274  0.88404248  0.29975724  1
  H  H26  1  0.39068258  0.76907793  0.32353357  1
  H  H27  1  0.12033596  0.60516515  0.93166201  1
  H  H28  1  0.01743931  0.73230674  0.74168356  1
  H  H29  1  0.89056201  0.80536008  0.88865767  1
  H  H30  1  0.02994164  0.61606521  0.20037277  1
  H  H31  1  0.89043622  0.73104419  0.17638750  1
  Hg  Hg32  1  0.44860798  0.02875332  0.95436901  1
  Hg  Hg33  1  0.94854181  0.47124405  0.54563209  1
  Hg  Hg34  1  0.05155269  0.97126412  0.45445034  1
  Hg  Hg35  1  0.55136803  0.52872122  0.04556990  1
  Cl  Cl36  1  0.49146545  0.22366224  0.97698862  1
  Cl  Cl37  1  0.18780055  0.94266565  0.10914114  1
  Cl  Cl38  1  0.73823386  0.03561418  0.32585796  1
  Cl  Cl39  1  0.99144037  0.27633584  0.52300283  1
  Cl  Cl40  1  0.31242482  0.05737713  0.60915457  1
  Cl  Cl41  1  0.76197630  0.96431099  0.82588248  1
  Cl  Cl42  1  0.50846440  0.72362605  0.02292790  1
  Cl  Cl43  1  0.68771837  0.55733982  0.39089393  1
  Cl  Cl44  1  0.23805478  0.46441213  0.17420208  1
  Cl  Cl45  1  0.00867706  0.77636172  0.47706193  1
  Cl  Cl46  1  0.26184779  0.53568382  0.67417863  1
  Cl  Cl47  1  0.81229555  0.44262302  0.89087480  1
