# generated using pymatgen
data_TlH5CN2Cl3
_symmetry_space_group_name_H-M   'P 1'
_cell_length_a   8.00393444
_cell_length_b   10.95909470
_cell_length_c   8.00059976
_cell_angle_alpha   89.97681931
_cell_angle_beta   89.99917972
_cell_angle_gamma   89.99944312
_symmetry_Int_Tables_number   1
_chemical_formula_structural   TlH5CN2Cl3
_chemical_formula_sum   'Tl4 H20 C4 N8 Cl12'
_cell_volume   701.77955488
_cell_formula_units_Z   4
loop_
 _symmetry_equiv_pos_site_id
 _symmetry_equiv_pos_as_xyz
  1  'x, y, z'
loop_
 _atom_site_type_symbol
 _atom_site_label
 _atom_site_symmetry_multiplicity
 _atom_site_fract_x
 _atom_site_fract_y
 _atom_site_fract_z
 _atom_site_occupancy
  C  C0  1  0.49572084  0.29081279  0.49651114  1
  C  C1  1  0.99573890  0.20931833  0.00347672  1
  C  C2  1  0.50538745  0.79048602  0.50252790  1
  C  C3  1  0.00524916  0.70936418  0.99749158  1
  N  N4  1  0.60099676  0.23741293  0.59845827  1
  N  N5  1  0.39304079  0.23579526  0.39362088  1
  N  N6  1  0.10110101  0.26271933  0.90154065  1
  N  N7  1  0.89311081  0.26433220  0.10634814  1
  N  N8  1  0.60526738  0.73515394  0.60787702  1
  N  N9  1  0.40017190  0.73747290  0.40022653  1
  N  N10  1  0.10516893  0.76472386  0.89215832  1
  N  N11  1  0.90001229  0.76240665  0.09980202  1
  H  H12  1  0.49323785  0.39025150  0.49733170  1
  H  H13  1  0.67629013  0.29066137  0.67134104  1
  H  H14  1  0.61079634  0.14506183  0.61175879  1
  H  H15  1  0.31530029  0.28831639  0.32221507  1
  H  H16  1  0.38664768  0.14336031  0.37891236  1
  H  H17  1  0.99320969  0.10987857  0.00257496  1
  H  H18  1  0.17636103  0.20946704  0.82865519  1
  H  H19  1  0.11095412  0.35506462  0.88830865  1
  H  H20  1  0.81531269  0.21182658  0.17773748  1
  H  H21  1  0.88675670  0.35677582  0.12112607  1
  H  H22  1  0.51059900  0.88985867  0.49954975  1
  H  H23  1  0.67971877  0.78735983  0.68299328  1
  H  H24  1  0.61494453  0.64258632  0.61871223  1
  H  H25  1  0.33018624  0.79092672  0.32239263  1
  H  H26  1  0.38178268  0.64537037  0.39501592  1
  H  H27  1  0.01042790  0.61001399  0.00044353  1
  H  H28  1  0.17961506  0.71249835  0.81705486  1
  H  H29  1  0.11486379  0.85727125  0.88136279  1
  H  H30  1  0.83002238  0.70892401  0.17760926  1
  H  H31  1  0.88165659  0.85449102  0.10504115  1
  Tl  Tl32  1  0.49941047  0.99996490  0.99724592  1
  Tl  Tl33  1  0.99941410  0.50005265  0.50275287  1
  Tl  Tl34  1  0.99994364  0.00007883  0.49671802  1
  Tl  Tl35  1  0.49993986  0.49994173  0.00328830  1
  Cl  Cl36  1  0.49902884  0.23542202  0.99613729  1
  Cl  Cl37  1  0.23493053  0.98511347  0.20476385  1
  Cl  Cl38  1  0.70605346  0.01512286  0.26322419  1
  Cl  Cl39  1  0.99897727  0.26460104  0.50388069  1
  Cl  Cl40  1  0.29323449  0.01441728  0.73197009  1
  Cl  Cl41  1  0.76594703  0.98531874  0.79172924  1
  Cl  Cl42  1  0.50164843  0.76453059  0.00237578  1
  Cl  Cl43  1  0.73492265  0.51490952  0.29523526  1
  Cl  Cl44  1  0.20602742  0.48487993  0.23673922  1
  Cl  Cl45  1  0.00175752  0.73547962  0.49758537  1
  Cl  Cl46  1  0.26593977  0.51467665  0.70827837  1
  Cl  Cl47  1  0.79319418  0.48559017  0.76800439  1
