# generated using pymatgen
data_H5PbCN2Cl3
_symmetry_space_group_name_H-M   'P 1'
_cell_length_a   8.01148297
_cell_length_b   11.14435498
_cell_length_c   7.99575233
_cell_angle_alpha   89.99750358
_cell_angle_beta   89.99974766
_cell_angle_gamma   89.99936527
_symmetry_Int_Tables_number   1
_chemical_formula_structural   H5PbCN2Cl3
_chemical_formula_sum   'H20 Pb4 C4 N8 Cl12'
_cell_volume   713.88323604
_cell_formula_units_Z   4
loop_
 _symmetry_equiv_pos_site_id
 _symmetry_equiv_pos_as_xyz
  1  'x, y, z'
loop_
 _atom_site_type_symbol
 _atom_site_label
 _atom_site_symmetry_multiplicity
 _atom_site_fract_x
 _atom_site_fract_y
 _atom_site_fract_z
 _atom_site_occupancy
  C  C0  1  0.49360727  0.29249584  0.49641610  1
  C  C1  1  0.99366733  0.20749865  0.00359050  1
  C  C2  1  0.50641572  0.79250575  0.50359462  1
  C  C3  1  0.00633811  0.70750146  0.99639775  1
  N  N4  1  0.59911837  0.23880678  0.59692842  1
  N  N5  1  0.39223340  0.23902142  0.39164670  1
  N  N6  1  0.09919478  0.26117840  0.90313832  1
  N  N7  1  0.89225958  0.26097207  0.10836722  1
  N  N8  1  0.60776249  0.73902824  0.60833678  1
  N  N9  1  0.40087273  0.73881282  0.40304896  1
  N  N10  1  0.10772394  0.76098670  0.89166402  1
  N  N11  1  0.90078393  0.76117943  0.09689655  1
  H  H12  1  0.48959802  0.39023314  0.50070314  1
  H  H13  1  0.67248990  0.28953511  0.67379125  1
  H  H14  1  0.61233795  0.14793218  0.60213718  1
  H  H15  1  0.31537480  0.29048810  0.31902606  1
  H  H16  1  0.38568382  0.14810735  0.37809833  1
  H  H17  1  0.98962608  0.10975960  0.99928954  1
  H  H18  1  0.17258574  0.21045510  0.82627625  1
  H  H19  1  0.11245584  0.35206021  0.89795785  1
  H  H20  1  0.81537944  0.20950444  0.18094921  1
  H  H21  1  0.88573315  0.35188252  0.12192483  1
  H  H22  1  0.51040211  0.89024019  0.49928475  1
  H  H23  1  0.68463156  0.79049183  0.68096959  1
  H  H24  1  0.61432320  0.64810750  0.62189673  1
  H  H25  1  0.32751933  0.78954792  0.32620544  1
  H  H26  1  0.38766981  0.64794664  0.39785815  1
  H  H27  1  0.01034563  0.60976446  0.00069095  1
  H  H28  1  0.18461379  0.70952946  0.81905796  1
  H  H29  1  0.11427341  0.85190492  0.87812317  1
  H  H30  1  0.82740548  0.71044058  0.17372805  1
  H  H31  1  0.88754955  0.85205072  0.10209349  1
  Pb  Pb32  1  0.49952095  0.99996749  0.99752556  1
  Pb  Pb33  1  0.99952327  0.50004787  0.50248355  1
  Pb  Pb34  1  0.00048903  0.00004801  0.49752852  1
  Pb  Pb35  1  0.50048585  0.49996693  0.00247502  1
  Cl  Cl36  1  0.49796003  0.25000414  0.99370014  1
  Cl  Cl37  1  0.21551499  0.98344897  0.21260588  1
  Cl  Cl38  1  0.71093121  0.02074042  0.28634414  1
  Cl  Cl39  1  0.99791231  0.25001247  0.50634706  1
  Cl  Cl40  1  0.28451434  0.01656201  0.71260126  1
  Cl  Cl41  1  0.78908673  0.97926400  0.78634922  1
  Cl  Cl42  1  0.50203954  0.75000390  0.00628652  1
  Cl  Cl43  1  0.71549228  0.51655807  0.28741031  1
  Cl  Cl44  1  0.21090575  0.47926011  0.21364028  1
  Cl  Cl45  1  0.00208868  0.75001303  0.49366526  1
  Cl  Cl46  1  0.28908553  0.52074726  0.71365617  1
  Cl  Cl47  1  0.78449258  0.48344876  0.78739803  1
