# generated using pymatgen
data_BeH10PbC2(N2Cl3)2
_symmetry_space_group_name_H-M   'P 1'
_cell_length_a   8.35311256
_cell_length_b   9.20324965
_cell_length_c   8.30814903
_cell_angle_alpha   86.95293259
_cell_angle_beta   90.00102050
_cell_angle_gamma   89.99947210
_symmetry_Int_Tables_number   1
_chemical_formula_structural   BeH10PbC2(N2Cl3)2
_chemical_formula_sum   'Be2 H20 Pb2 C4 N8 Cl12'
_cell_volume   637.79245494
_cell_formula_units_Z   2
loop_
 _symmetry_equiv_pos_site_id
 _symmetry_equiv_pos_as_xyz
  1  'x, y, z'
loop_
 _atom_site_type_symbol
 _atom_site_label
 _atom_site_symmetry_multiplicity
 _atom_site_fract_x
 _atom_site_fract_y
 _atom_site_fract_z
 _atom_site_occupancy
  C  C0  1  0.47344405  0.26798471  0.50389493  1
  C  C1  1  0.97346406  0.23201880  0.99609701  1
  C  C2  1  0.48988333  0.81763833  0.48876374  1
  C  C3  1  0.98987762  0.68236993  0.01125424  1
  N  N4  1  0.59575893  0.22331157  0.59110647  1
  N  N5  1  0.42254413  0.20794502  0.37284772  1
  N  N6  1  0.09578451  0.27670530  0.90889645  1
  N  N7  1  0.92255527  0.29203803  0.12714986  1
  N  N8  1  0.58440886  0.75999649  0.59995763  1
  N  N9  1  0.39156793  0.74719425  0.39745057  1
  N  N10  1  0.08439009  0.73999632  0.90005599  1
  N  N11  1  0.89154977  0.75281040  0.10255942  1
  H  H12  1  0.40561903  0.36026421  0.54566205  1
  H  H13  1  0.62924176  0.27935768  0.68839450  1
  H  H14  1  0.66703006  0.13815790  0.56285673  1
  H  H15  1  0.33598302  0.26255758  0.30647996  1
  H  H16  1  0.49111737  0.13560873  0.31402301  1
  H  H17  1  0.90565647  0.13973829  0.95432030  1
  H  H18  1  0.12927583  0.22066573  0.81161930  1
  H  H19  1  0.16704215  0.36186015  0.93716502  1
  H  H20  1  0.83598996  0.23742561  0.19349746  1
  H  H21  1  0.99110786  0.36438399  0.18598061  1
  H  H22  1  0.49281627  0.93514958  0.46948083  1
  H  H23  1  0.65774322  0.82565016  0.66385300  1
  H  H24  1  0.59181829  0.65045044  0.62476448  1
  H  H25  1  0.33043916  0.80358106  0.30720459  1
  H  H26  1  0.37558991  0.63734606  0.40722972  1
  H  H27  1  0.99282848  0.56485591  0.03056301  1
  H  H28  1  0.15773448  0.67434539  0.83616235  1
  H  H29  1  0.09178242  0.84955121  0.87522417  1
  H  H30  1  0.83043323  0.69643116  0.19281257  1
  H  H31  1  0.87555411  0.86266331  0.09275882  1
  Be  Be32  1  0.38732833  0.00191780  0.97378666  1
  Be  Be33  1  0.88733744  0.49807984  0.52621771  1
  Pb  Pb34  1  0.02472115  0.99255273  0.48867157  1
  Pb  Pb35  1  0.52472956  0.50745203  0.01132725  1
  Cl  Cl36  1  0.52683631  0.18331113  0.99454367  1
  Cl  Cl37  1  0.21612921  0.98875133  0.14894126  1
  Cl  Cl38  1  0.75938735  0.01791297  0.30786700  1
  Cl  Cl39  1  0.02684940  0.31668936  0.50545129  1
  Cl  Cl40  1  0.28907894  0.01317854  0.74869921  1
  Cl  Cl41  1  0.83492648  0.98183337  0.74529137  1
  Cl  Cl42  1  0.52654736  0.82179334  0.00248587  1
  Cl  Cl43  1  0.71613409  0.51123713  0.35106090  1
  Cl  Cl44  1  0.25940241  0.48209888  0.19213783  1
  Cl  Cl45  1  0.02655530  0.67821040  0.49752342  1
  Cl  Cl46  1  0.33492931  0.51818401  0.75470886  1
  Cl  Cl47  1  0.78909509  0.48680683  0.75130441  1
