# generated using pymatgen
data_BeTlH10C2(N2Cl3)2
_symmetry_space_group_name_H-M   'P 1'
_cell_length_a   6.65490973
_cell_length_b   12.09372061
_cell_length_c   8.50371689
_cell_angle_alpha   87.47640370
_cell_angle_beta   93.84868285
_cell_angle_gamma   91.25922990
_symmetry_Int_Tables_number   1
_chemical_formula_structural   BeTlH10C2(N2Cl3)2
_chemical_formula_sum   'Be2 Tl2 H20 C4 N8 Cl12'
_cell_volume   682.07147528
_cell_formula_units_Z   2
loop_
 _symmetry_equiv_pos_site_id
 _symmetry_equiv_pos_as_xyz
  1  'x, y, z'
loop_
 _atom_site_type_symbol
 _atom_site_label
 _atom_site_symmetry_multiplicity
 _atom_site_fract_x
 _atom_site_fract_y
 _atom_site_fract_z
 _atom_site_occupancy
  C  C0  1  0.45359184  0.30368551  0.47243016  1
  C  C1  1  0.89017133  0.18982575  0.08676753  1
  C  C2  1  0.57175802  0.78951041  0.51010935  1
  C  C3  1  0.00718152  0.71580937  0.97051828  1
  N  N4  1  0.54554366  0.23914824  0.58046442  1
  N  N5  1  0.42003268  0.27835242  0.32346458  1
  N  N6  1  0.96187686  0.22099561  0.95189499  1
  N  N7  1  0.87070365  0.25360085  0.20568945  1
  N  N8  1  0.62158137  0.71512037  0.62236060  1
  N  N9  1  0.58659724  0.77490748  0.35958264  1
  N  N10  1  0.04939927  0.79240022  0.86345370  1
  N  N11  1  0.01758791  0.72824977  0.12405172  1
  H  H12  1  0.40226426  0.38381827  0.50587470  1
  H  H13  1  0.55850763  0.26137836  0.69518456  1
  H  H14  1  0.60034990  0.16384982  0.55098653  1
  H  H15  1  0.34585994  0.33322439  0.24637468  1
  H  H16  1  0.46686323  0.20457539  0.28536636  1
  H  H17  1  0.83996526  0.10354300  0.10210406  1
  H  H18  1  0.97946651  0.16456967  0.86835250  1
  H  H19  1  0.00475304  0.30075195  0.92646281  1
  H  H20  1  0.81617181  0.21711261  0.30569324  1
  H  H21  1  0.91680105  0.33487562  0.20489263  1
  H  H22  1  0.51844637  0.86894442  0.54414585  1
  H  H23  1  0.59885360  0.72895218  0.73732946  1
  H  H24  1  0.67832022  0.64066965  0.59654063  1
  H  H25  1  0.55030517  0.83788927  0.27927151  1
  H  H26  1  0.63654306  0.70265786  0.32033249  1
  H  H27  1  0.95630461  0.63492295  0.92959492  1
  H  H28  1  0.04250313  0.77809320  0.74400392  1
  H  H29  1  0.09724066  0.86981193  0.89428293  1
  H  H30  1  0.99244582  0.66150364  0.19816688  1
  H  H31  1  0.07499255  0.79732059  0.17666573  1
  Be  Be32  1  0.43951224  0.99383097  0.89329651  1
  Be  Be33  1  0.94700366  0.44704978  0.59004158  1
  Tl  Tl34  1  0.12478114  0.02525062  0.40407905  1
  Tl  Tl35  1  0.40539514  0.48368522  0.90722799  1
  Cl  Cl36  1  0.45244856  0.27748548  0.93971315  1
  Cl  Cl37  1  0.35496393  0.94040530  0.09513442  1
  Cl  Cl38  1  0.66819389  0.04898762  0.38062751  1
  Cl  Cl39  1  0.01882689  0.29207467  0.58439498  1
  Cl  Cl40  1  0.22085498  0.04683634  0.75427028  1
  Cl  Cl41  1  0.70608377  0.98566105  0.83152119  1
  Cl  Cl42  1  0.52642632  0.67140752  0.99515389  1
  Cl  Cl43  1  0.80307998  0.51334856  0.39819393  1
  Cl  Cl44  1  0.15609976  0.46848904  0.12903283  1
  Cl  Cl45  1  0.08751603  0.79775219  0.48874989  1
  Cl  Cl46  1  0.22102290  0.54226878  0.63665758  1
  Cl  Cl47  1  0.79482696  0.47545910  0.78959617  1
