# generated using pymatgen
data_BeHgH10C2(N2Cl3)2
_symmetry_space_group_name_H-M   'P 1'
_cell_length_a   7.95927934
_cell_length_b   10.19021128
_cell_length_c   8.04714076
_cell_angle_alpha   89.99884300
_cell_angle_beta   89.99819821
_cell_angle_gamma   90.00282312
_symmetry_Int_Tables_number   1
_chemical_formula_structural   BeHgH10C2(N2Cl3)2
_chemical_formula_sum   'Be2 Hg2 H20 C4 N8 Cl12'
_cell_volume   652.67733667
_cell_formula_units_Z   2
loop_
 _symmetry_equiv_pos_site_id
 _symmetry_equiv_pos_as_xyz
  1  'x, y, z'
loop_
 _atom_site_type_symbol
 _atom_site_label
 _atom_site_symmetry_multiplicity
 _atom_site_fract_x
 _atom_site_fract_y
 _atom_site_fract_z
 _atom_site_occupancy
  C  C0  1  0.50063343  0.28912893  0.50348820  1
  C  C1  1  1.00060791  0.21087075  0.99653101  1
  C  C2  1  0.50881235  0.79737434  0.49891394  1
  C  C3  1  0.00886071  0.70262491  0.00107746  1
  N  N4  1  0.60218907  0.23268648  0.61009438  1
  N  N5  1  0.40328061  0.23060969  0.39515395  1
  N  N6  1  0.10225434  0.26730377  0.88998498  1
  N  N7  1  0.90329360  0.26941835  0.10486879  1
  N  N8  1  0.60525070  0.74180092  0.61032311  1
  N  N9  1  0.39877403  0.73825035  0.40361988  1
  N  N10  1  0.10527167  0.75822373  0.88964615  1
  N  N11  1  0.89879289  0.76172017  0.09635900  1
  H  H12  1  0.49559549  0.39579588  0.50562095  1
  H  H13  1  0.67206280  0.29137111  0.68658973  1
  H  H14  1  0.61686211  0.13377769  0.62420150  1
  H  H15  1  0.33138795  0.28818467  0.31880545  1
  H  H16  1  0.39178234  0.13157256  0.38409518  1
  H  H17  1  0.99544531  0.10422452  0.99431930  1
  H  H18  1  0.17208934  0.20860976  0.81346349  1
  H  H19  1  0.11704801  0.36621581  0.87594564  1
  H  H20  1  0.83131936  0.21185632  0.18116999  1
  H  H21  1  0.89191480  0.36845227  0.11600168  1
  H  H22  1  0.52320744  0.90278636  0.48271181  1
  H  H23  1  0.68320766  0.80067694  0.67999517  1
  H  H24  1  0.59878452  0.64434916  0.63802214  1
  H  H25  1  0.33030247  0.79285631  0.32139786  1
  H  H26  1  0.37288154  0.64049265  0.41056393  1
  H  H27  1  0.02332281  0.59722644  0.01730552  1
  H  H28  1  0.18324804  0.69936486  0.81998025  1
  H  H29  1  0.09874911  0.85566721  0.86191838  1
  H  H30  1  0.83035395  0.70710108  0.17859405  1
  H  H31  1  0.87284175  0.85946370  0.08937944  1
  Be  Be32  1  0.41745147  0.98768430  0.05495725  1
  Be  Be33  1  0.91745477  0.51230156  0.44508140  1
  Hg  Hg34  1  0.98739656  0.01224340  0.51901676  1
  Hg  Hg35  1  0.48746384  0.48779761  0.98093872  1
  Cl  Cl36  1  0.50325192  0.15686315  0.99863914  1
  Cl  Cl37  1  0.21947093  0.98201104  0.19895617  1
  Cl  Cl38  1  0.77243604  0.02026386  0.30850933  1
  Cl  Cl39  1  0.00325266  0.34312274  0.50137289  1
  Cl  Cl40  1  0.25261387  0.01903713  0.66608888  1
  Cl  Cl41  1  0.80391415  0.97870796  0.77842211  1
  Cl  Cl42  1  0.50813847  0.81992041  0.00198815  1
  Cl  Cl43  1  0.71949696  0.51797318  0.30104935  1
  Cl  Cl44  1  0.27248833  0.47973021  0.19144939  1
  Cl  Cl45  1  0.00812878  0.68007309  0.49804246  1
  Cl  Cl46  1  0.30394798  0.52129068  0.72156543  1
  Cl  Cl47  1  0.75268451  0.48098496  0.83388502  1
