# generated using pymatgen
data_CaH12RuC2(I3N)2
_symmetry_space_group_name_H-M   'P 1'
_cell_length_a   8.15967468
_cell_length_b   11.73047849
_cell_length_c   8.10269051
_cell_angle_alpha   91.75022902
_cell_angle_beta   90.00436394
_cell_angle_gamma   89.98880921
_symmetry_Int_Tables_number   1
_chemical_formula_structural   CaH12RuC2(I3N)2
_chemical_formula_sum   'Ca2 H24 Ru2 C4 I12 N4'
_cell_volume   775.20248077
_cell_formula_units_Z   2
loop_
 _symmetry_equiv_pos_site_id
 _symmetry_equiv_pos_as_xyz
  1  'x, y, z'
loop_
 _atom_site_type_symbol
 _atom_site_label
 _atom_site_symmetry_multiplicity
 _atom_site_fract_x
 _atom_site_fract_y
 _atom_site_fract_z
 _atom_site_occupancy
  C  C0  1  0.39612678  0.25053270  0.41301070  1
  C  C1  1  0.89725291  0.24967155  0.08792747  1
  C  C2  1  0.60387089  0.74947146  0.58700048  1
  C  C3  1  0.10275189  0.75033089  0.91208590  1
  N  N4  1  0.54036996  0.25098793  0.52301119  1
  N  N5  1  0.04089649  0.24907547  0.97717106  1
  N  N6  1  0.45962734  0.74901713  0.47700069  1
  N  N7  1  0.95910981  0.75092228  0.02284335  1
  H  H8  1  0.43805770  0.24898428  0.28479539  1
  H  H9  1  0.32239527  0.17515844  0.43642786  1
  H  H10  1  0.32518165  0.32797447  0.43870180  1
  H  H11  1  0.61133653  0.17852158  0.49938521  1
  H  H12  1  0.61300832  0.32161319  0.50096438  1
  H  H13  1  0.50810110  0.25333350  0.64800229  1
  H  H14  1  0.93997660  0.25130222  0.21592184  1
  H  H15  1  0.82610786  0.17227679  0.06284173  1
  H  H16  1  0.82345955  0.32510322  0.06487838  1
  H  H17  1  0.11355691  0.17838387  0.99887847  1
  H  H18  1  0.11201531  0.32146973  0.00033330  1
  H  H19  1  0.00792842  0.24668432  0.85231126  1
  H  H20  1  0.56194099  0.75102015  0.71521561  1
  H  H21  1  0.67481556  0.67203014  0.56130878  1
  H  H22  1  0.67760243  0.82484601  0.56358257  1
  H  H23  1  0.38866065  0.82148276  0.50062716  1
  H  H24  1  0.38698838  0.67839104  0.49904872  1
  H  H25  1  0.49189487  0.74667084  0.35200990  1
  H  H26  1  0.06002719  0.74870277  0.78409162  1
  H  H27  1  0.17389517  0.82772621  0.93717495  1
  H  H28  1  0.17654773  0.67489998  0.93513014  1
  H  H29  1  0.88644512  0.82161210  0.00114034  1
  H  H30  1  0.88799381  0.67852606  0.99967995  1
  H  H31  1  0.99207941  0.75331215  0.14770344  1
  Ca  Ca32  1  0.50000281  0.00000363  0.00000698  1
  Ca  Ca33  1  0.99999791  0.50000307  0.50000255  1
  Ru  Ru34  1  0.00000092  0.00000312  0.50000735  1
  Ru  Ru35  1  0.49999887  0.50000333  0.00000348  1
  I  I36  1  0.47518348  0.26717939  0.94930747  1
  I  I37  1  0.17110145  0.01133748  0.20492164  1
  I  I38  1  0.70830385  0.00231843  0.32671488  1
  I  I39  1  0.97443010  0.23278717  0.55123363  1
  I  I40  1  0.29169801  0.99768739  0.67330105  1
  I  I41  1  0.82890262  0.98866501  0.79509350  1
  I  I42  1  0.52481899  0.73282735  0.05070349  1
  I  I43  1  0.67098545  0.48868206  0.29510418  1
  I  I44  1  0.20827442  0.49778282  0.17322164  1
  I  I45  1  0.02556919  0.76721865  0.44878180  1
  I  I46  1  0.32901094  0.51132248  0.70490250  1
  I  I47  1  0.79172212  0.50222164  0.82678452  1
