# generated using pymatgen
data_BeH10PtC2(N2Cl3)2
_symmetry_space_group_name_H-M   'P 1'
_cell_length_a   6.86957465
_cell_length_b   10.59878638
_cell_length_c   8.36035004
_cell_angle_alpha   90.10135605
_cell_angle_beta   90.05354185
_cell_angle_gamma   89.94413544
_symmetry_Int_Tables_number   1
_chemical_formula_structural   BeH10PtC2(N2Cl3)2
_chemical_formula_sum   'Be2 H20 Pt2 C4 N8 Cl12'
_cell_volume   608.70850959
_cell_formula_units_Z   2
loop_
 _symmetry_equiv_pos_site_id
 _symmetry_equiv_pos_as_xyz
  1  'x, y, z'
loop_
 _atom_site_type_symbol
 _atom_site_label
 _atom_site_symmetry_multiplicity
 _atom_site_fract_x
 _atom_site_fract_y
 _atom_site_fract_z
 _atom_site_occupancy
  C  C0  1  0.49423747  0.29001136  0.48063512  1
  C  C1  1  0.99369383  0.20964177  0.01953946  1
  C  C2  1  0.53937466  0.79807918  0.53953334  1
  C  C3  1  0.03880387  0.70181303  0.96023018  1
  N  N4  1  0.53024112  0.26126338  0.62999008  1
  N  N5  1  0.40307211  0.21673035  0.37906144  1
  N  N6  1  0.03039250  0.23778387  0.87018985  1
  N  N7  1  0.90469833  0.28413422  0.12098849  1
  N  N8  1  0.56651069  0.72429604  0.66341125  1
  N  N9  1  0.47159278  0.76142323  0.40061473  1
  N  N10  1  0.06812546  0.77510503  0.83630940  1
  N  N11  1  0.97201188  0.73937525  0.09901060  1
  H  H12  1  0.54552148  0.38102418  0.43656465  1
  H  H13  1  0.59990559  0.32556311  0.70162465  1
  H  H14  1  0.48589797  0.17796477  0.67859788  1
  H  H15  1  0.38615619  0.24429336  0.26293908  1
  H  H16  1  0.34944452  0.13040253  0.41026962  1
  H  H17  1  0.04249034  0.11803512  0.06374501  1
  H  H18  1  0.09888945  0.17272776  0.79887530  1
  H  H19  1  0.98882025  0.32167716  0.82139519  1
  H  H20  1  0.88656801  0.25664537  0.23698150  1
  H  H21  1  0.85297958  0.37096533  0.08956465  1
  H  H22  1  0.57538781  0.89745326  0.55405043  1
  H  H23  1  0.61221351  0.76076658  0.76989692  1
  H  H24  1  0.53696213  0.63011032  0.66051541  1
  H  H25  1  0.44861488  0.82548931  0.31128906  1
  H  H26  1  0.43218503  0.67063362  0.37685990  1
  H  H27  1  0.07183431  0.60195969  0.94579432  1
  H  H28  1  0.11302300  0.73783142  0.73007999  1
  H  H29  1  0.04209530  0.86975287  0.83903646  1
  H  H30  1  0.94728775  0.67561867  0.18831353  1
  H  H31  1  0.93521770  0.83066735  0.12264082  1
  Be  Be32  1  0.56499542  0.05006436  0.06072307  1
  Be  Be33  1  0.06517110  0.44998319  0.43928735  1
  Pt  Pt34  1  0.99370742  0.03681828  0.46417158  1
  Pt  Pt35  1  0.49388258  0.46329816  0.03596237  1
  Cl  Cl36  1  0.46626769  0.24050145  0.00721783  1
  Cl  Cl37  1  0.32126148  0.96941447  0.12292675  1
  Cl  Cl38  1  0.72930793  0.02388361  0.28355097  1
  Cl  Cl39  1  0.96618109  0.25965336  0.49308498  1
  Cl  Cl40  1  0.23245606  0.02570695  0.65642609  1
  Cl  Cl41  1  0.70947458  0.98905018  0.87715917  1
  Cl  Cl42  1  0.50028623  0.67744038  0.04135386  1
  Cl  Cl43  1  0.82158319  0.53087832  0.37645349  1
  Cl  Cl44  1  0.23073660  0.47752787  0.21756496  1
  Cl  Cl45  1  -0.00034117  0.82266345  0.45841945  1
  Cl  Cl46  1  0.20895131  0.51029284  0.62383583  1
  Cl  Cl47  1  0.73184833  0.47364757  0.84341874  1
