# generated using pymatgen
data_HfBeH10C2(N2Cl3)2
_symmetry_space_group_name_H-M   'P 1'
_cell_length_a   6.76105066
_cell_length_b   10.80993699
_cell_length_c   8.84506015
_cell_angle_alpha   92.21854323
_cell_angle_beta   90.46742403
_cell_angle_gamma   89.91876919
_symmetry_Int_Tables_number   1
_chemical_formula_structural   HfBeH10C2(N2Cl3)2
_chemical_formula_sum   'Hf2 Be2 H20 C4 N8 Cl12'
_cell_volume   645.94832321
_cell_formula_units_Z   2
loop_
 _symmetry_equiv_pos_site_id
 _symmetry_equiv_pos_as_xyz
  1  'x, y, z'
loop_
 _atom_site_type_symbol
 _atom_site_label
 _atom_site_symmetry_multiplicity
 _atom_site_fract_x
 _atom_site_fract_y
 _atom_site_fract_z
 _atom_site_occupancy
  C  C0  1  0.46914282  0.27682287  0.44710439  1
  C  C1  1  0.96565079  0.22257764  0.05399148  1
  C  C2  1  0.54514519  0.81016142  0.52338006  1
  C  C3  1  0.04310474  0.69012663  0.97694526  1
  N  N4  1  0.53308846  0.23755184  0.57823278  1
  N  N5  1  0.39024536  0.20423206  0.34010742  1
  N  N6  1  0.02710778  0.26088790  0.92247570  1
  N  N7  1  0.88902761  0.29621256  0.16016514  1
  N  N8  1  0.56930675  0.73997470  0.64004828  1
  N  N9  1  0.50365144  0.77116116  0.38417475  1
  N  N10  1  0.06757438  0.76033367  0.86061581  1
  N  N11  1  0.00353529  0.72948131  0.11585705  1
  H  H12  1  0.48332232  0.37545844  0.42792087  1
  H  H13  1  0.59323242  0.29958428  0.65540637  1
  H  H14  1  0.53445328  0.14648146  0.60353324  1
  H  H15  1  0.33280633  0.24776002  0.24917572  1
  H  H16  1  0.31979327  0.11894254  0.36649278  1
  H  H17  1  0.97989374  0.12403428  0.07394446  1
  H  H18  1  0.08675591  0.19855759  0.84626744  1
  H  H19  1  0.02673857  0.35167760  0.89594082  1
  H  H20  1  0.83194075  0.25297127  0.25068202  1
  H  H21  1  0.81579482  0.38107417  0.13209350  1
  H  H22  1  0.56352847  0.90973978  0.54438730  1
  H  H23  1  0.60683436  0.78079259  0.74251835  1
  H  H24  1  0.56594515  0.64562174  0.63158995  1
  H  H25  1  0.47838232  0.83415031  0.30316092  1
  H  H26  1  0.48287551  0.68010347  0.35399098  1
  H  H27  1  0.05908023  0.59040464  0.95591821  1
  H  H28  1  0.10449695  0.71968230  0.75841546  1
  H  H29  1  0.06641153  0.85466464  0.86980493  1
  H  H30  1  0.97702924  0.66668887  0.19650096  1
  H  H31  1  0.98521237  0.82077488  0.14582839  1
  Be  Be32  1  0.47319263  0.04707811  0.95569031  1
  Be  Be33  1  0.98567359  0.45180720  0.53346943  1
  Hf  Hf34  1  0.01245668  0.02642118  0.50416113  1
  Hf  Hf35  1  0.50998467  0.47354828  0.99609456  1
  Cl  Cl36  1  0.49065368  0.23708077  0.95513679  1
  Cl  Cl37  1  0.30153160  0.97713244  0.09931746  1
  Cl  Cl38  1  0.78018111  0.03067943  0.30073043  1
  Cl  Cl39  1  0.99574406  0.26369310  0.54523047  1
  Cl  Cl40  1  0.23585163  0.02901342  0.72768282  1
  Cl  Cl41  1  0.70782730  0.97339203  0.87436147  1
  Cl  Cl42  1  0.53981765  0.68943097  0.02061157  1
  Cl  Cl43  1  0.80228040  0.52342403  0.39914130  1
  Cl  Cl44  1  0.28000239  0.46961789  0.19965669  1
  Cl  Cl45  1  0.04154992  0.81067341  0.48151700  1
  Cl  Cl46  1  0.21219241  0.52733937  0.62507627  1
  Cl  Cl47  1  0.72997142  0.47104271  0.77555630  1
