# generated using pymatgen
data_BaBeH10C2(N2Cl3)2
_symmetry_space_group_name_H-M   'P 1'
_cell_length_a   8.42523352
_cell_length_b   9.34556976
_cell_length_c   8.39400347
_cell_angle_alpha   88.52596002
_cell_angle_beta   89.99992848
_cell_angle_gamma   89.99866196
_symmetry_Int_Tables_number   1
_chemical_formula_structural   BaBeH10C2(N2Cl3)2
_chemical_formula_sum   'Ba2 Be2 H20 C4 N8 Cl12'
_cell_volume   660.71343104
_cell_formula_units_Z   2
loop_
 _symmetry_equiv_pos_site_id
 _symmetry_equiv_pos_as_xyz
  1  'x, y, z'
loop_
 _atom_site_type_symbol
 _atom_site_label
 _atom_site_symmetry_multiplicity
 _atom_site_fract_x
 _atom_site_fract_y
 _atom_site_fract_z
 _atom_site_occupancy
  C  C0  1  0.47449008  0.25984303  0.51641503  1
  C  C1  1  0.97450452  0.24017445  0.98357988  1
  C  C2  1  0.50581476  0.80421723  0.46695448  1
  C  C3  1  0.00581652  0.69577097  0.03302283  1
  N  N4  1  0.60016984  0.21279897  0.59207560  1
  N  N5  1  0.42309882  0.20930063  0.37969602  1
  N  N6  1  0.10020246  0.28724002  0.90795012  1
  N  N7  1  0.92312439  0.29066567  0.12032563  1
  N  N8  1  0.56675225  0.76551309  0.60401826  1
  N  N9  1  0.38068831  0.74423599  0.40035099  1
  N  N10  1  0.06674283  0.73448984  0.89596679  1
  N  N11  1  0.88069116  0.75575204  0.09964402  1
  H  H12  1  0.40568161  0.34520738  0.57108434  1
  H  H13  1  0.62932570  0.25332938  0.69959739  1
  H  H14  1  0.67349945  0.13681343  0.54588212  1
  H  H15  1  0.34300333  0.27212704  0.31633489  1
  H  H16  1  0.49505868  0.14396944  0.31490127  1
  H  H17  1  0.90569552  0.15484900  0.92885926  1
  H  H18  1  0.12933693  0.24678481  0.80038353  1
  H  H19  1  0.17353631  0.36318870  0.95421011  1
  H  H20  1  0.84302097  0.22782933  0.18365774  1
  H  H21  1  0.99507881  0.35597582  0.18514539  1
  H  H22  1  0.56262665  0.89262334  0.40057009  1
  H  H23  1  0.65912081  0.82339244  0.65120357  1
  H  H24  1  0.51615092  0.68265099  0.66991692  1
  H  H25  1  0.35285775  0.77369340  0.28577029  1
  H  H26  1  0.32508219  0.65613187  0.44893741  1
  H  H27  1  0.06262828  0.60735457  0.09939395  1
  H  H28  1  0.15911129  0.67661488  0.84876817  1
  H  H29  1  0.01613848  0.81736322  0.83008313  1
  H  H30  1  0.85287031  0.72628680  0.21422407  1
  H  H31  1  0.82508455  0.84386268  0.05106919  1
  Be  Be32  1  0.38552522  0.00358488  0.96878579  1
  Be  Be33  1  0.88554043  0.49641658  0.53122609  1
  Ba  Ba34  1  0.06318741  0.99818961  0.46944249  1
  Ba  Ba35  1  0.56319088  0.50181122  0.03057297  1
  Cl  Cl36  1  0.52387518  0.18055061  0.98679545  1
  Cl  Cl37  1  0.21031400  0.99977007  0.13600350  1
  Cl  Cl38  1  0.75573950  0.03546414  0.30007525  1
  Cl  Cl39  1  0.02391285  0.31945600  0.51323914  1
  Cl  Cl40  1  0.29445376  0.00424465  0.74574377  1
  Cl  Cl41  1  0.83774670  0.97049959  0.74645023  1
  Cl  Cl42  1  0.51561338  0.82519378  0.01304617  1
  Cl  Cl43  1  0.71033716  0.50021549  0.36400144  1
  Cl  Cl44  1  0.25574953  0.46453732  0.19994909  1
  Cl  Cl45  1  0.01561037  0.67480876  0.48696456  1
  Cl  Cl46  1  0.33776586  0.52951547  0.75355274  1
  Cl  Cl47  1  0.79445260  0.49575438  0.75426360  1
