# generated using pymatgen
data_BeSnH10C2(N2Cl3)2
_symmetry_space_group_name_H-M   'P 1'
_cell_length_a   8.28926895
_cell_length_b   9.18675617
_cell_length_c   8.42439112
_cell_angle_alpha   86.13435414
_cell_angle_beta   89.99735678
_cell_angle_gamma   90.00099521
_symmetry_Int_Tables_number   1
_chemical_formula_structural   BeSnH10C2(N2Cl3)2
_chemical_formula_sum   'Be2 Sn2 H20 C4 N8 Cl12'
_cell_volume   640.07040092
_cell_formula_units_Z   2
loop_
 _symmetry_equiv_pos_site_id
 _symmetry_equiv_pos_as_xyz
  1  'x, y, z'
loop_
 _atom_site_type_symbol
 _atom_site_label
 _atom_site_symmetry_multiplicity
 _atom_site_fract_x
 _atom_site_fract_y
 _atom_site_fract_z
 _atom_site_occupancy
  C  C0  1  0.46897210  0.27091157  0.49935755  1
  C  C1  1  0.96891438  0.22909761  0.00063086  1
  C  C2  1  0.48448447  0.81782093  0.49488435  1
  C  C3  1  0.98452643  0.68218361  0.00512132  1
  N  N4  1  0.59002325  0.22857857  0.59042553  1
  N  N5  1  0.42119017  0.20723651  0.37204241  1
  N  N6  1  0.08996043  0.27142827  0.90954022  1
  N  N7  1  0.92118944  0.29274710  0.12798624  1
  N  N8  1  0.58371925  0.75933880  0.60173082  1
  N  N9  1  0.40074659  0.74777221  0.39224386  1
  N  N10  1  0.08379879  0.74065937  0.89829150  1
  N  N11  1  0.90076653  0.75224607  0.10774284  1
  H  H12  1  0.39910333  0.36428797  0.53420076  1
  H  H13  1  0.62319662  0.28895988  0.68264877  1
  H  H14  1  0.66212485  0.14176583  0.56951828  1
  H  H15  1  0.33228511  0.25711379  0.30429775  1
  H  H16  1  0.49058308  0.13239764  0.31916730  1
  H  H17  1  0.89900433  0.13575444  0.96577467  1
  H  H18  1  0.12308121  0.21107704  0.81727557  1
  H  H19  1  0.16210518  0.35821196  0.93045548  1
  H  H20  1  0.83229128  0.24286728  0.19575000  1
  H  H21  1  0.99062378  0.36755682  0.18086550  1
  H  H22  1  0.46739913  0.93524622  0.49257911  1
  H  H23  1  0.64621945  0.82486492  0.67382758  1
  H  H24  1  0.60982968  0.65044327  0.61232136  1
  H  H25  1  0.33148774  0.80566881  0.30908240  1
  H  H26  1  0.40528561  0.63755384  0.38612181  1
  H  H27  1  0.96742947  0.56476306  0.00743027  1
  H  H28  1  0.14632383  0.67512349  0.82622213  1
  H  H29  1  0.10992294  0.84955452  0.88770560  1
  H  H30  1  0.83147614  0.69435936  0.19089139  1
  H  H31  1  0.90532222  0.86246539  0.11386189  1
  Be  Be32  1  0.39171904  0.00121663  0.97630836  1
  Be  Be33  1  0.89170435  0.49880746  0.52369138  1
  Sn  Sn34  1  0.01580842  0.99075173  0.49515320  1
  Sn  Sn35  1  0.51581731  0.50920615  0.00486964  1
  Cl  Cl36  1  0.53434884  0.17911116  -0.00046493  1
  Cl  Cl37  1  0.21930309  0.98581035  0.14839278  1
  Cl  Cl38  1  0.76295178  0.01143097  0.31904875  1
  Cl  Cl39  1  0.03430593  0.32090425  0.50047673  1
  Cl  Cl40  1  0.29186051  0.01604916  0.75596605  1
  Cl  Cl41  1  0.83664767  0.98660895  0.73904931  1
  Cl  Cl42  1  0.53070082  0.81720024  0.00107266  1
  Cl  Cl43  1  0.71930254  0.51424216  0.35161141  1
  Cl  Cl44  1  0.26294797  0.48853201  0.18097790  1
  Cl  Cl45  1  0.03072647  0.68280288  0.49893532  1
  Cl  Cl46  1  0.33665957  0.51334081  0.76098099  1
  Cl  Cl47  1  0.79182819  0.48399194  0.74404009  1
