# generated using pymatgen
data_BeCdH10C2(N2Cl3)2
_symmetry_space_group_name_H-M   'P 1'
_cell_length_a   7.96020382
_cell_length_b   9.92563478
_cell_length_c   8.12479641
_cell_angle_alpha   90.64702732
_cell_angle_beta   90.00231475
_cell_angle_gamma   89.99999457
_symmetry_Int_Tables_number   1
_chemical_formula_structural   BeCdH10C2(N2Cl3)2
_chemical_formula_sum   'Be2 Cd2 H20 C4 N8 Cl12'
_cell_volume   641.89984874
_cell_formula_units_Z   2
loop_
 _symmetry_equiv_pos_site_id
 _symmetry_equiv_pos_as_xyz
  1  'x, y, z'
loop_
 _atom_site_type_symbol
 _atom_site_label
 _atom_site_symmetry_multiplicity
 _atom_site_fract_x
 _atom_site_fract_y
 _atom_site_fract_z
 _atom_site_occupancy
  C  C0  1  0.50502858  0.29197340  0.50726249  1
  C  C1  1  0.00504343  0.20803037  0.99273426  1
  C  C2  1  0.51102561  0.79381814  0.50032138  1
  C  C3  1  0.01100907  0.70617956  0.99968799  1
  N  N4  1  0.59877653  0.23539701  0.61957303  1
  N  N5  1  0.40968364  0.23077565  0.39840501  1
  N  N6  1  0.09881352  0.26460836  0.88044926  1
  N  N7  1  0.90969880  0.26923671  0.10159254  1
  N  N8  1  0.60353322  0.73790422  0.61395415  1
  N  N9  1  0.39875525  0.73277502  0.40821517  1
  N  N10  1  0.10348125  0.76207154  0.88604385  1
  N  N11  1  0.89873360  0.76722217  0.09178946  1
  H  H12  1  0.50609018  0.40138085  0.50378527  1
  H  H13  1  0.66727390  0.29654941  0.69666621  1
  H  H14  1  0.60950840  0.13402530  0.63674187  1
  H  H15  1  0.34331461  0.28875938  0.31737540  1
  H  H16  1  0.39220520  0.12928738  0.39459418  1
  H  H17  1  1.00605287  0.09862154  0.99621299  1
  H  H18  1  0.16728830  0.20345491  0.80339296  1
  H  H19  1  0.10957327  0.36595903  0.86332023  1
  H  H20  1  0.84328513  0.21125306  0.18261930  1
  H  H21  1  0.89224474  0.37073572  0.10541782  1
  H  H22  1  0.53242460  0.90039797  0.47809164  1
  H  H23  1  0.68282437  0.79873443  0.68176544  1
  H  H24  1  0.59048386  0.63981070  0.64754505  1
  H  H25  1  0.33201265  0.78789694  0.32524594  1
  H  H26  1  0.36655710  0.63403850  0.42027139  1
  H  H27  1  0.03243284  0.59960668  0.02195544  1
  H  H28  1  0.18277622  0.70124480  0.81821936  1
  H  H29  1  0.09040342  0.86016708  0.85241105  1
  H  H30  1  0.83203411  0.71212140  0.17477673  1
  H  H31  1  0.86652455  0.86594890  0.07969301  1
  Be  Be32  1  0.41511758  0.98315656  0.06106270  1
  Be  Be33  1  0.91513740  0.51683413  0.43893760  1
  Cd  Cd34  1  0.98255680  -0.01327711  0.51595491  1
  Cd  Cd35  1  0.48258329  0.51339341  0.98405492  1
  Cl  Cl36  1  0.49769666  0.15445835  -0.00038437  1
  Cl  Cl37  1  0.21958151  0.97661422  0.20676623  1
  Cl  Cl38  1  0.76966700  0.02226857  0.30716533  1
  Cl  Cl39  1  0.99770976  0.34552387  0.50039092  1
  Cl  Cl40  1  0.25109115  0.01390588  0.65836057  1
  Cl  Cl41  1  0.80550769  0.98034415  0.76979090  1
  Cl  Cl42  1  0.50929499  0.80938074  0.00396398  1
  Cl  Cl43  1  0.71958272  0.52336446  0.29323054  1
  Cl  Cl44  1  0.26968994  0.47773921  0.19281793  1
  Cl  Cl45  1  0.00930352  0.69061288  0.49600851  1
  Cl  Cl46  1  0.30550931  0.51966101  0.73021781  1
  Cl  Cl47  1  0.75109719  0.48609653  0.84163640  1
