# generated using pymatgen
data_BeH10PdC2(N2Cl3)2
_symmetry_space_group_name_H-M   'P 1'
_cell_length_a   7.57117325
_cell_length_b   10.89411808
_cell_length_c   7.57567422
_cell_angle_alpha   89.08155372
_cell_angle_beta   90.00340621
_cell_angle_gamma   90.00044070
_symmetry_Int_Tables_number   1
_chemical_formula_structural   BeH10PdC2(N2Cl3)2
_chemical_formula_sum   'Be2 H20 Pd2 C4 N8 Cl12'
_cell_volume   624.77084066
_cell_formula_units_Z   2
loop_
 _symmetry_equiv_pos_site_id
 _symmetry_equiv_pos_as_xyz
  1  'x, y, z'
loop_
 _atom_site_type_symbol
 _atom_site_label
 _atom_site_symmetry_multiplicity
 _atom_site_fract_x
 _atom_site_fract_y
 _atom_site_fract_z
 _atom_site_occupancy
  C  C0  1  0.49527200  0.29210032  0.50318686  1
  C  C1  1  0.99530481  0.20790391  0.99684687  1
  C  C2  1  0.50503006  0.78951592  0.50384399  1
  C  C3  1  0.00499603  0.71048370  0.99615140  1
  N  N4  1  0.60670081  0.23813139  0.61136656  1
  N  N5  1  0.39050394  0.23717285  0.39179143  1
  N  N6  1  0.10674668  0.26187931  0.88868861  1
  N  N7  1  0.89050553  0.26282879  0.10819011  1
  N  N8  1  0.61275761  0.73610455  0.61629878  1
  N  N9  1  0.39278876  0.73394608  0.40039192  1
  N  N10  1  0.11274945  0.76388064  0.88371965  1
  N  N11  1  0.89274167  0.76606101  0.09955500  1
  H  H12  1  0.48809795  0.39185034  0.50597334  1
  H  H13  1  0.68134988  0.29248231  0.69092866  1
  H  H14  1  0.62784495  0.14542724  0.61805309  1
  H  H15  1  0.31368103  0.29087007  0.31072096  1
  H  H16  1  0.38224593  0.14429947  0.38298541  1
  H  H17  1  0.98815547  0.10815303  0.99408719  1
  H  H18  1  0.18142084  0.20752504  0.80916215  1
  H  H19  1  0.12787635  0.35458191  0.88198973  1
  H  H20  1  0.81367158  0.20913670  0.18924780  1
  H  H21  1  0.88220783  0.35570502  0.11695091  1
  H  H22  1  0.50967793  0.88939332  0.49612733  1
  H  H23  1  0.69565905  0.79096908  0.68634737  1
  H  H24  1  0.61767797  0.64356879  0.64010442  1
  H  H25  1  0.31595383  0.78639987  0.31852274  1
  H  H26  1  0.37767748  0.64098746  0.39252019  1
  H  H27  1  0.00962540  0.61060542  0.00389331  1
  H  H28  1  0.19566707  0.70900601  0.81371119  1
  H  H29  1  0.11768860  0.85641538  0.85989345  1
  H  H30  1  0.81588309  0.71362074  0.18140964  1
  H  H31  1  0.87764412  0.85902335  0.10740756  1
  Be  Be32  1  0.41963097  0.99771887  0.06628121  1
  Be  Be33  1  0.91965614  0.50228663  0.43370725  1
  Pd  Pd34  1  0.01324593  0.00457160  0.48881871  1
  Pd  Pd35  1  0.51323313  0.49543371  0.01119315  1
  Cl  Cl36  1  0.49698713  0.15638076  0.00528045  1
  Cl  Cl37  1  0.20137403  0.97980750  0.22561261  1
  Cl  Cl38  1  0.76844063  0.01202939  0.30568469  1
  Cl  Cl39  1  0.99698690  0.34362656  0.49474559  1
  Cl  Cl40  1  0.25435669  0.01612736  0.67561485  1
  Cl  Cl41  1  0.82861767  0.98914245  0.72720646  1
  Cl  Cl42  1  0.50446327  0.84287037  1.00046683  1
  Cl  Cl43  1  0.70135088  0.52017576  0.27440772  1
  Cl  Cl44  1  0.26843419  0.48797437  0.19430792  1
  Cl  Cl45  1  0.00450317  0.65714185  0.49949980  1
  Cl  Cl46  1  0.32859571  0.51087720  0.77279321  1
  Cl  Cl47  1  0.75433923  0.48386958  0.82441669  1
