# generated using pymatgen
data_YBeH10C2(N2Cl3)2
_symmetry_space_group_name_H-M   'P 1'
_cell_length_a   6.39434575
_cell_length_b   11.47431849
_cell_length_c   8.42559572
_cell_angle_alpha   86.89674517
_cell_angle_beta   92.00327832
_cell_angle_gamma   89.30675903
_symmetry_Int_Tables_number   1
_chemical_formula_structural   YBeH10C2(N2Cl3)2
_chemical_formula_sum   'Y2 Be2 H20 C4 N8 Cl12'
_cell_volume   616.84793409
_cell_formula_units_Z   2
loop_
 _symmetry_equiv_pos_site_id
 _symmetry_equiv_pos_as_xyz
  1  'x, y, z'
loop_
 _atom_site_type_symbol
 _atom_site_label
 _atom_site_symmetry_multiplicity
 _atom_site_fract_x
 _atom_site_fract_y
 _atom_site_fract_z
 _atom_site_occupancy
  C  C0  1  0.56164243  0.22770475  0.42166849  1
  C  C1  1  0.00372705  0.24820167  0.09121438  1
  C  C2  1  0.54338438  0.78112855  0.44084347  1
  C  C3  1  0.00980750  0.73362477  0.03152522  1
  N  N4  1  0.70237060  0.16752950  0.54359310  1
  N  N5  1  0.40079501  0.14794927  0.36452922  1
  N  N6  1  0.00113733  0.33958220  0.97443615  1
  N  N7  1  0.99939653  0.25845908  0.24170825  1
  N  N8  1  0.57067786  0.71624561  0.57329633  1
  N  N9  1  0.51234320  0.74231499  0.29838554  1
  N  N10  1  0.00951340  0.81061501  0.91069108  1
  N  N11  1  -0.00097245  0.75767316  0.18126622  1
  H  H12  1  0.48509487  0.30346920  0.46894863  1
  H  H13  1  0.72718220  0.22400574  0.63280784  1
  H  H14  1  0.62663953  0.09825114  0.60018425  1
  H  H15  1  0.34614965  0.18718970  0.25805826  1
  H  H16  1  0.47928732  0.07574184  0.32633179  1
  H  H17  1  0.01695237  0.16144380  0.04468600  1
  H  H18  1  0.95150517  0.31147621  0.86597942  1
  H  H19  1  0.91579537  0.41139860  1.00252333  1
  H  H20  1  0.65417179  0.25946996  0.32123506  1
  H  H21  1  0.99226845  0.34421099  0.27327658  1
  H  H22  1  0.55179523  0.87522080  0.45011356  1
  H  H23  1  0.57881220  0.75486599  0.67969587  1
  H  H24  1  0.56369887  0.62746100  0.57698345  1
  H  H25  1  0.48788390  0.80202391  0.20471961  1
  H  H26  1  0.50057985  0.65565650  0.27698651  1
  H  H27  1  0.02027105  0.64195885  0.00543321  1
  H  H28  1  0.02866092  0.78572747  0.79766137  1
  H  H29  1  0.00245417  0.89823999  0.92534353  1
  H  H30  1  0.98961391  0.69014132  0.26498055  1
  H  H31  1  0.97810766  0.84127622  0.21657768  1
  Be  Be32  1  0.38081541  0.04804992  0.90431517  1
  Be  Be33  1  0.94416070  0.47048317  0.57690148  1
  Y  Y34  1  0.04158825  0.09611311  0.45286374  1
  Y  Y35  1  0.36350011  0.43866408  0.90521143  1
  Cl  Cl36  1  0.50555930  0.21778026  0.95744229  1
  Cl  Cl37  1  0.30425194  0.97170522  0.10866091  1
  Cl  Cl38  1  0.79679555  0.00935647  0.23871850  1
  Cl  Cl39  1  0.13836659  0.33060455  0.59498619  1
  Cl  Cl40  1  0.10154290  0.08479833  0.78182484  1
  Cl  Cl41  1  0.58075529  0.95964773  0.78589296  1
  Cl  Cl42  1  0.56184417  0.62924671  0.94025297  1
  Cl  Cl43  1  0.85754710  0.52415065  0.36176830  1
  Cl  Cl44  1  0.33831639  0.45685754  0.20248809  1
  Cl  Cl45  1  0.10758510  0.87615065  0.52141941  1
  Cl  Cl46  1  0.10215136  0.58116669  0.71681190  1
  Cl  Cl47  1  0.66449186  0.42503009  0.68486261  1
