# generated using pymatgen
data_SrBeH10C2(N2Cl3)2
_symmetry_space_group_name_H-M   'P 1'
_cell_length_a   8.38463020
_cell_length_b   9.15895750
_cell_length_c   8.18740573
_cell_angle_alpha   88.38852344
_cell_angle_beta   90.00081859
_cell_angle_gamma   90.00030506
_symmetry_Int_Tables_number   1
_chemical_formula_structural   SrBeH10C2(N2Cl3)2
_chemical_formula_sum   'Sr2 Be2 H20 C4 N8 Cl12'
_cell_volume   628.49882947
_cell_formula_units_Z   2
loop_
 _symmetry_equiv_pos_site_id
 _symmetry_equiv_pos_as_xyz
  1  'x, y, z'
loop_
 _atom_site_type_symbol
 _atom_site_label
 _atom_site_symmetry_multiplicity
 _atom_site_fract_x
 _atom_site_fract_y
 _atom_site_fract_z
 _atom_site_occupancy
  C  C0  1  0.47658122  0.25512336  0.51616547  1
  C  C1  1  0.97660306  0.24486694  0.98385114  1
  C  C2  1  0.50312614  0.80877188  0.46611977  1
  C  C3  1  1.00314500  0.69125175  0.03389121  1
  N  N4  1  0.60383380  0.20917403  0.59353872  1
  N  N5  1  0.42462879  0.20147949  0.37766322  1
  N  N6  1  0.10383088  0.29080502  0.90646455  1
  N  N7  1  0.92464581  0.29853671  0.12234741  1
  N  N8  1  0.57172666  0.77104278  0.60371140  1
  N  N9  1  0.37379489  0.74695846  0.40707083  1
  N  N10  1  0.07170207  0.72893825  0.89628879  1
  N  N11  1  0.87378747  0.75305194  0.09292975  1
  H  H12  1  0.40709693  0.34234968  0.57094401  1
  H  H13  1  0.63343613  0.25265525  0.70244894  1
  H  H14  1  0.67876619  0.13255129  0.54665206  1
  H  H15  1  0.34441692  0.26488433  0.31179351  1
  H  H16  1  0.49741178  0.13587118  0.31117670  1
  H  H17  1  0.90711614  0.15761904  0.92910678  1
  H  H18  1  0.13343765  0.24729657  0.79756629  1
  H  H19  1  0.17876547  0.36745775  0.95331005  1
  H  H20  1  0.84443860  0.23514328  0.18822622  1
  H  H21  1  0.99742971  0.36416506  0.18880911  1
  H  H22  1  0.55737512  0.89728566  0.39321071  1
  H  H23  1  0.66741571  0.82964714  0.64631723  1
  H  H24  1  0.52472529  0.68689013  0.67448282  1
  H  H25  1  0.34066578  0.77345499  0.29006436  1
  H  H26  1  0.32267659  0.65669121  0.46138195  1
  H  H27  1  0.05742589  0.60277959  0.10685074  1
  H  H28  1  0.16740987  0.67034387  0.85369124  1
  H  H29  1  0.02467097  0.81305588  0.82547489  1
  H  H30  1  0.84069134  0.72659875  0.20995145  1
  H  H31  1  0.82264344  0.84328654  0.03857600  1
  Be  Be32  1  0.37863803  0.00268257  0.97141438  1
  Be  Be33  1  0.87863570  0.49731933  0.52858941  1
  Sr  Sr34  1  0.05595349  0.99882967  0.47421535  1
  Sr  Sr35  1  0.55596175  0.50118528  0.02578829  1
  Cl  Cl36  1  0.52116315  0.18305029  0.98996169  1
  Cl  Cl37  1  0.20335596  0.99886095  0.14589039  1
  Cl  Cl38  1  0.77001475  0.03043954  0.30103204  1
  Cl  Cl39  1  0.02117458  0.31696112  0.51004442  1
  Cl  Cl40  1  0.28657026  0.00475257  0.74117381  1
  Cl  Cl41  1  0.84657041  0.97313942  0.74492182  1
  Cl  Cl42  1  0.51002677  0.81960753  0.01407132  1
  Cl  Cl43  1  0.70334713  0.50112291  0.35412076  1
  Cl  Cl44  1  0.27002245  0.46957637  0.19896953  1
  Cl  Cl45  1  0.01001524  0.68040270  0.48592059  1
  Cl  Cl46  1  0.34657070  0.52686222  0.75508163  1
  Cl  Cl47  1  0.78657764  0.49524270  0.75883200  1
