# generated using pymatgen
data_BeGeH10C2(N2Cl3)2
_symmetry_space_group_name_H-M   'P 1'
_cell_length_a   6.73041347
_cell_length_b   11.98177205
_cell_length_c   8.31910490
_cell_angle_alpha   93.30342039
_cell_angle_beta   77.95252763
_cell_angle_gamma   93.59866867
_symmetry_Int_Tables_number   1
_chemical_formula_structural   BeGeH10C2(N2Cl3)2
_chemical_formula_sum   'Be2 Ge2 H20 C4 N8 Cl12'
_cell_volume   654.12034406
_cell_formula_units_Z   2
loop_
 _symmetry_equiv_pos_site_id
 _symmetry_equiv_pos_as_xyz
  1  'x, y, z'
loop_
 _atom_site_type_symbol
 _atom_site_label
 _atom_site_symmetry_multiplicity
 _atom_site_fract_x
 _atom_site_fract_y
 _atom_site_fract_z
 _atom_site_occupancy
  C  C0  1  0.51705570  0.28337125  0.47764235  1
  C  C1  1  0.00270648  0.22378869  0.03412673  1
  C  C2  1  0.50766064  0.78793288  0.49394438  1
  C  C3  1  0.97641747  0.71329067  0.99015479  1
  N  N4  1  0.52012358  0.26149213  0.62986598  1
  N  N5  1  0.45799305  0.21077632  0.37120193  1
  N  N6  1  0.01362595  0.22448593  0.87496599  1
  N  N7  1  0.91479104  0.29909615  0.14211510  1
  N  N8  1  0.56781158  0.73347333  0.60572986  1
  N  N9  1  0.47990332  0.74489248  0.35113597  1
  N  N10  1  0.04426694  0.77476253  0.86299752  1
  N  N11  1  0.95303970  0.74972192  0.14426456  1
  H  H12  1  0.56571068  0.36789952  0.43826791  1
  H  H13  1  0.58595314  0.31836906  0.70181332  1
  H  H14  1  0.47468740  0.18443670  0.67590578  1
  H  H15  1  0.46102421  0.23042692  0.25210660  1
  H  H16  1  0.42921565  0.12831677  0.39581816  1
  H  H17  1  0.07329630  0.15581527  0.07988972  1
  H  H18  1  0.08961817  0.16210762  0.80288243  1
  H  H19  1  0.95120150  0.28392580  0.82042232  1
  H  H20  1  0.92686112  0.29623719  0.26326053  1
  H  H21  1  0.84576789  0.36459105  0.10729695  1
  H  H22  1  0.47897211  0.87608692  0.52205367  1
  H  H23  1  0.58877680  0.77481111  0.71198434  1
  H  H24  1  0.60377624  0.65162936  0.58743481  1
  H  H25  1  0.43194874  0.79448321  0.27244928  1
  H  H26  1  0.48686879  0.66131651  0.31957134  1
  H  H27  1  0.93402491  0.62554367  0.96451014  1
  H  H28  1  0.06259281  0.73804684  0.74745275  1
  H  H29  1  0.09282925  0.85688182  0.87362283  1
  H  H30  1  0.91676536  0.69307273  0.23499056  1
  H  H31  1  0.00171456  0.82894416  0.17584705  1
  Be  Be32  1  0.45365621  0.03517506  0.93485766  1
  Be  Be33  1  0.08353555  0.46967356  0.45615066  1
  Ge  Ge34  1  0.94608290  0.02017566  0.54568679  1
  Ge  Ge35  1  0.36830001  0.49009648  0.96396761  1
  Cl  Cl36  1  0.50193105  0.19747774  0.98813967  1
  Cl  Cl37  1  0.30811611  0.95863373  0.13447569  1
  Cl  Cl38  1  0.75106303  0.01413450  0.34706000  1
  Cl  Cl39  1  0.01118252  0.30828601  0.50138040  1
  Cl  Cl40  1  0.29364993  0.01898238  0.74775304  1
  Cl  Cl41  1  0.72011971  0.95893602  0.82868762  1
  Cl  Cl42  1  0.45132432  0.67823275  0.98398674  1
  Cl  Cl43  1  0.85882604  0.53562965  0.37274687  1
  Cl  Cl44  1  0.35967827  0.47070698  0.26031756  1
  Cl  Cl45  1  0.03468915  0.83812697  0.49518762  1
  Cl  Cl46  1  0.18569500  0.55256050  0.63657074  1
  Cl  Cl47  1  0.71516848  0.45320844  0.87741044  1
