# generated using pymatgen
data_BeZnH10C2(N2Cl3)2
_symmetry_space_group_name_H-M   'P 1'
_cell_length_a   6.43107878
_cell_length_b   13.39482482
_cell_length_c   7.51192095
_cell_angle_alpha   89.30116803
_cell_angle_beta   89.94506099
_cell_angle_gamma   89.91942163
_symmetry_Int_Tables_number   1
_chemical_formula_structural   BeZnH10C2(N2Cl3)2
_chemical_formula_sum   'Be2 Zn2 H20 C4 N8 Cl12'
_cell_volume   647.05165164
_cell_formula_units_Z   2
loop_
 _symmetry_equiv_pos_site_id
 _symmetry_equiv_pos_as_xyz
  1  'x, y, z'
loop_
 _atom_site_type_symbol
 _atom_site_label
 _atom_site_symmetry_multiplicity
 _atom_site_fract_x
 _atom_site_fract_y
 _atom_site_fract_z
 _atom_site_occupancy
  C  C0  1  0.43726032  0.31725546  0.48985540  1
  C  C1  1  0.93726760  0.18274867  0.01046055  1
  C  C2  1  0.56466815  0.82035004  0.54101390  1
  C  C3  1  0.06297871  0.67974859  0.95885929  1
  N  N4  1  0.43954827  0.32173731  0.66415654  1
  N  N5  1  0.42290585  0.23460418  0.39923803  1
  N  N6  1  0.93989518  0.17800689  0.83619869  1
  N  N7  1  0.92287231  0.26555653  0.10071909  1
  N  N8  1  0.55827323  0.73161743  0.61696099  1
  N  N9  1  0.56580439  0.83781233  0.36910990  1
  N  N10  1  0.05958923  0.76844439  0.88261163  1
  N  N11  1  0.06460729  0.66253068  0.13081499  1
  H  H12  1  0.44578109  0.38739487  0.41500273  1
  H  H13  1  0.45769740  0.38909646  0.72340503  1
  H  H14  1  0.43581196  0.25976669  0.74551143  1
  H  H15  1  0.42184268  0.23681990  0.26310034  1
  H  H16  1  0.40829538  0.16607044  0.46091823  1
  H  H17  1  0.94554514  0.11270034  0.08562735  1
  H  H18  1  0.95782595  0.11051744  0.77727843  1
  H  H19  1  0.93628897  0.23986521  0.75453030  1
  H  H20  1  0.92180604  0.26353685  0.23688481  1
  H  H21  1  0.90845436  0.33402413  0.03877271  1
  H  H22  1  0.56785438  0.88505568  0.62808155  1
  H  H23  1  0.55689701  0.72507871  0.75350223  1
  H  H24  1  0.56429782  0.66744996  0.54497919  1
  H  H25  1  0.58711671  0.90967416  0.32625684  1
  H  H26  1  0.56391733  0.78268068  0.27490658  1
  H  H27  1  0.06328244  0.61490200  0.87207284  1
  H  H28  1  0.05788088  0.77484663  0.74606341  1
  H  H29  1  0.06866988  0.83260645  0.95435847  1
  H  H30  1  0.08327305  0.59056505  0.17402341  1
  H  H31  1  0.06480979  0.71778660  0.22479392  1
  Be  Be32  1  0.45657224  0.02963089  0.99316161  1
  Be  Be33  1  0.95572587  0.47019606  0.50693395  1
  Zn  Zn34  1  0.06763360  0.96910959  0.42742199  1
  Zn  Zn35  1  0.56589197  0.53095616  0.07246643  1
  Cl  Cl36  1  0.44413533  0.17261942  0.99437709  1
  Cl  Cl37  1  0.22369235  0.96165920  0.11809228  1
  Cl  Cl38  1  0.78260164  0.05992492  0.39035111  1
  Cl  Cl39  1  0.94396898  0.32717945  0.50582319  1
  Cl  Cl40  1  0.28499311  0.03663573  0.62603838  1
  Cl  Cl41  1  0.69316315  0.95315967  0.92764143  1
  Cl  Cl42  1  0.55349089  0.69629471  0.03476931  1
  Cl  Cl43  1  0.72304478  0.53816686  0.38148286  1
  Cl  Cl44  1  0.28173361  0.43998644  0.11009528  1
  Cl  Cl45  1  0.05472485  0.80377437  0.46514198  1
  Cl  Cl46  1  0.19179472  0.54663342  0.57258733  1
  Cl  Cl47  1  0.78383344  0.46328534  0.87365171  1
