# generated using pymatgen
data_SrCaH12C2(I3N)2
_symmetry_space_group_name_H-M   'P 1'
_cell_length_a   8.62525456
_cell_length_b   12.48850239
_cell_length_c   8.47362656
_cell_angle_alpha   89.57010069
_cell_angle_beta   90.00655588
_cell_angle_gamma   90.00021224
_symmetry_Int_Tables_number   1
_chemical_formula_structural   SrCaH12C2(I3N)2
_chemical_formula_sum   'Sr2 Ca2 H24 C4 I12 N4'
_cell_volume   912.72380021
_cell_formula_units_Z   2
loop_
 _symmetry_equiv_pos_site_id
 _symmetry_equiv_pos_as_xyz
  1  'x, y, z'
loop_
 _atom_site_type_symbol
 _atom_site_label
 _atom_site_symmetry_multiplicity
 _atom_site_fract_x
 _atom_site_fract_y
 _atom_site_fract_z
 _atom_site_occupancy
  C  C0  1  0.39610912  0.25022618  0.41545611  1
  C  C1  1  0.89738062  0.25001358  0.08577427  1
  C  C2  1  0.60388825  0.74977808  0.58455812  1
  C  C3  1  0.10262676  0.74998689  0.91423988  1
  N  N4  1  0.53424982  0.24992572  0.52003275  1
  N  N5  1  0.03484825  0.25013301  0.98033786  1
  N  N6  1  0.46574544  0.75007605  0.47998624  1
  N  N7  1  0.96516101  0.74986409  0.01967814  1
  H  H8  1  0.43524168  0.25027644  0.29252299  1
  H  H9  1  0.32790116  0.17808133  0.43950865  1
  H  H10  1  0.32758194  0.32212171  0.43884792  1
  H  H11  1  0.60167070  0.18251348  0.49757633  1
  H  H12  1  0.60201549  0.31748315  0.49743903  1
  H  H13  1  0.50465508  0.24941950  0.63954833  1
  H  H14  1  0.93740837  0.25000835  0.20846648  1
  H  H15  1  0.82858619  0.17815003  0.06301071  1
  H  H16  1  0.82917243  0.32220561  0.06217371  1
  H  H17  1  0.10260364  0.18254203  0.00255313  1
  H  H18  1  0.10250577  0.31750906  0.00228284  1
  H  H19  1  0.00450023  0.25062369  0.86096770  1
  H  H20  1  0.56475759  0.74972808  0.70749288  1
  H  H21  1  0.67241465  0.67788013  0.56116711  1
  H  H22  1  0.67209699  0.82192050  0.56050473  1
  H  H23  1  0.39832558  0.81749022  0.50244138  1
  H  H24  1  0.39798110  0.68252059  0.50257786  1
  H  H25  1  0.49534000  0.75058412  0.36046686  1
  H  H26  1  0.06259745  0.74999409  0.79154834  1
  H  H27  1  0.17142173  0.82184952  0.93700640  1
  H  H28  1  0.17083554  0.67779394  0.93783620  1
  H  H29  1  0.89740309  0.81745399  0.99746576  1
  H  H30  1  0.89750530  0.68248727  0.99773297  1
  H  H31  1  0.99551023  0.74937300  0.13904854  1
  Ca  Ca32  1  0.50000222  0.00000997  0.00000845  1
  Ca  Ca33  1  0.99998828  0.50000101  0.49999171  1
  Sr  Sr34  1  0.00000255  0.00000219  0.50001166  1
  Sr  Sr35  1  0.49999480  0.50001253  0.99998883  1
  I  I36  1  0.47209338  0.24546110  0.93782329  1
  I  I37  1  0.18212518  0.01519756  0.16791708  1
  I  I38  1  0.67050988  0.01820706  0.32173340  1
  I  I39  1  0.97154969  0.25455262  0.56274655  1
  I  I40  1  0.32950159  0.98180267  0.67828028  1
  I  I41  1  0.81788112  0.98480193  0.83210318  1
  I  I42  1  0.52791022  0.75455689  0.06219258  1
  I  I43  1  0.68209712  0.48461090  0.33202446  1
  I  I44  1  0.17061701  0.48200398  0.17831196  1
  I  I45  1  0.02844620  0.74545183  0.43726813  1
  I  I46  1  0.31788334  0.51539078  0.66796133  1
  I  I47  1  0.82937997  0.51800184  0.82168349  1
