# generated using pymatgen
data_BeNiH10C2(N2Cl3)2
_symmetry_space_group_name_H-M   'P 1'
_cell_length_a   6.80988105
_cell_length_b   10.44097363
_cell_length_c   8.51876134
_cell_angle_alpha   90.93474553
_cell_angle_beta   90.06696873
_cell_angle_gamma   89.84030649
_symmetry_Int_Tables_number   1
_chemical_formula_structural   BeNiH10C2(N2Cl3)2
_chemical_formula_sum   'Be2 Ni2 H20 C4 N8 Cl12'
_cell_volume   605.61582828
_cell_formula_units_Z   2
loop_
 _symmetry_equiv_pos_site_id
 _symmetry_equiv_pos_as_xyz
  1  'x, y, z'
loop_
 _atom_site_type_symbol
 _atom_site_label
 _atom_site_symmetry_multiplicity
 _atom_site_fract_x
 _atom_site_fract_y
 _atom_site_fract_z
 _atom_site_occupancy
  C  C0  1  0.47947318  0.29582009  0.48325601  1
  C  C1  1  0.97834371  0.20383240  0.01694869  1
  C  C2  1  0.53819552  0.79326765  0.51757378  1
  C  C3  1  0.03712542  0.70683408  0.98198283  1
  N  N4  1  0.52709176  0.26288513  0.62573085  1
  N  N5  1  0.41714131  0.21757274  0.37219870  1
  N  N6  1  0.02744774  0.23588949  0.87462853  1
  N  N7  1  0.91947307  0.28320531  0.12815024  1
  N  N8  1  0.55733659  0.71999069  0.64036151  1
  N  N9  1  0.47867725  0.75540440  0.37819145  1
  N  N10  1  0.05870019  0.77991210  0.85940006  1
  N  N11  1  0.97878826  0.74546323  0.12136715  1
  H  H12  1  0.49294580  0.39614862  0.45200478  1
  H  H13  1  0.58349176  0.33046009  0.70240844  1
  H  H14  1  0.51660014  0.17059793  0.66211029  1
  H  H15  1  0.38046857  0.25430011  0.26566795  1
  H  H16  1  0.40057935  0.12177227  0.38795898  1
  H  H17  1  0.98716065  0.10320397  0.04791438  1
  H  H18  1  0.08161965  0.16738817  0.79801878  1
  H  H19  1  0.02154238  0.32841581  0.83841277  1
  H  H20  1  0.88136545  0.24707588  0.23453809  1
  H  H21  1  0.90725333  0.37937977  0.11284825  1
  H  H22  1  0.57487020  0.89405521  0.53326870  1
  H  H23  1  0.60076984  0.75745987  0.74611693  1
  H  H24  1  0.53325240  0.62387916  0.63667983  1
  H  H25  1  0.46691709  0.82020141  0.29032534  1
  H  H26  1  0.43566364  0.66385103  0.35051215  1
  H  H27  1  0.07033606  0.60544246  0.96600071  1
  H  H28  1  0.10101414  0.74178518  0.75369104  1
  H  H29  1  0.03864303  0.87648895  0.86333963  1
  H  H30  1  0.96488894  0.68071133  0.20901365  1
  H  H31  1  0.93823176  0.83759097  0.14912678  1
  Be  Be32  1  0.50281919  0.06889054  0.99536850  1
  Be  Be33  1  0.00299159  0.43109168  0.50506901  1
  Ni  Ni34  1  0.00638273  0.02124157  0.48342569  1
  Ni  Ni35  1  0.50689912  0.47875944  0.01644924  1
  Cl  Cl36  1  0.46470239  0.25788356  0.99709082  1
  Cl  Cl37  1  0.31856404  0.98075914  0.12194796  1
  Cl  Cl38  1  0.78785890  0.01535103  0.29612183  1
  Cl  Cl39  1  0.96433876  0.24225456  0.50335359  1
  Cl  Cl40  1  0.23463212  0.02297085  0.66156594  1
  Cl  Cl41  1  0.68456843  0.99341938  0.85174684  1
  Cl  Cl42  1  0.51197982  0.68252990  0.01476097  1
  Cl  Cl43  1  0.81957157  0.51992771  0.37754804  1
  Cl  Cl44  1  0.28903367  0.48566803  0.20391986  1
  Cl  Cl45  1  0.01132422  0.81742274  0.48497346  1
  Cl  Cl46  1  0.18480732  0.50567084  0.64914741  1
  Cl  Cl47  1  0.73413732  0.47593648  0.83786829  1
