# generated using pymatgen
data_CaBeH10C2(N2Cl3)2
_symmetry_space_group_name_H-M   'P 1'
_cell_length_a   8.41463899
_cell_length_b   8.96523019
_cell_length_c   8.04036989
_cell_angle_alpha   87.92379846
_cell_angle_beta   90.00549990
_cell_angle_gamma   90.00200079
_symmetry_Int_Tables_number   1
_chemical_formula_structural   CaBeH10C2(N2Cl3)2
_chemical_formula_sum   'Ca2 Be2 H20 C4 N8 Cl12'
_cell_volume   606.16068349
_cell_formula_units_Z   2
loop_
 _symmetry_equiv_pos_site_id
 _symmetry_equiv_pos_as_xyz
  1  'x, y, z'
loop_
 _atom_site_type_symbol
 _atom_site_label
 _atom_site_symmetry_multiplicity
 _atom_site_fract_x
 _atom_site_fract_y
 _atom_site_fract_z
 _atom_site_occupancy
  C  C0  1  0.47984002  0.25260651  0.51524085  1
  C  C1  1  0.97992448  0.24734289  0.98482052  1
  C  C2  1  0.50249990  0.80661977  0.45707038  1
  C  C3  1  0.00253255  0.69342579  0.04297779  1
  N  N4  1  0.60740525  0.20791877  0.59458916  1
  N  N5  1  0.42834174  0.19510339  0.37646410  1
  N  N6  1  0.10743066  0.29201090  0.90539389  1
  N  N7  1  0.92841568  0.30496618  0.12352356  1
  N  N8  1  0.57354430  0.78012107  0.59920984  1
  N  N9  1  0.36731483  0.74559956  0.41263076  1
  N  N10  1  0.07348961  0.71983146  0.90077966  1
  N  N11  1  0.86732628  0.75438646  0.08738638  1
  H  H12  1  0.41003016  0.34200115  0.56855252  1
  H  H13  1  0.63813014  0.25593664  0.70268162  1
  H  H14  1  0.68325084  0.13063117  0.54750651  1
  H  H15  1  0.34725124  0.25732577  0.30804658  1
  H  H16  1  0.50098314  0.12763184  0.31046558  1
  H  H17  1  0.91012218  0.15783771  0.93163742  1
  H  H18  1  0.13816329  0.24386006  0.79739260  1
  H  H19  1  0.18324641  0.36941262  0.95231432  1
  H  H20  1  0.84732240  0.24279087  0.19199973  1
  H  H21  1  1.00102900  0.37254047  0.18942018  1
  H  H22  1  0.55923708  0.88490905  0.36856129  1
  H  H23  1  0.67482793  0.83697435  0.63080137  1
  H  H24  1  0.52551762  0.70369469  0.68316429  1
  H  H25  1  0.33026137  0.76213858  0.29277672  1
  H  H26  1  0.31457564  0.66199088  0.48253126  1
  H  H27  1  0.05936581  0.61526261  0.13154488  1
  H  H28  1  0.17481554  0.66302243  0.86922415  1
  H  H29  1  0.02539083  0.79616799  0.81675228  1
  H  H30  1  0.83034985  0.73796476  0.20727322  1
  H  H31  1  0.81451738  0.83793536  0.01741733  1
  Be  Be32  1  0.37129906  0.00128645  0.97291879  1
  Be  Be33  1  0.87128602  0.49871071  0.52708458  1
  Ca  Ca34  1  0.04745382  0.00183466  0.47956031  1
  Ca  Ca35  1  0.54748909  0.49820864  0.02044035  1
  Cl  Cl36  1  0.51906352  0.18355194  0.99010726  1
  Cl  Cl37  1  0.19879822  0.99828849  0.15445234  1
  Cl  Cl38  1  0.78125950  0.02809124  0.30527455  1
  Cl  Cl39  1  0.01909633  0.31648688  0.50989580  1
  Cl  Cl40  1  0.27985590  0.00288701  0.73633839  1
  Cl  Cl41  1  0.85444956  0.97338532  0.74297718  1
  Cl  Cl42  1  0.50459979  0.81357051  0.01603174  1
  Cl  Cl43  1  0.69876192  0.50167017  0.34555911  1
  Cl  Cl44  1  0.28128438  0.47195653  0.19467782  1
  Cl  Cl45  1  0.00456171  0.68645853  0.48395225  1
  Cl  Cl46  1  0.35443656  0.52662323  0.75702194  1
  Cl  Cl47  1  0.77987080  0.49709098  0.76366157  1
