# generated using pymatgen
data_BeSiH10C2(N2Cl3)2
_symmetry_space_group_name_H-M   'P 1'
_cell_length_a   6.79052554
_cell_length_b   11.89564575
_cell_length_c   8.13479734
_cell_angle_alpha   89.83496445
_cell_angle_beta   78.80961846
_cell_angle_gamma   87.59068151
_symmetry_Int_Tables_number   1
_chemical_formula_structural   BeSiH10C2(N2Cl3)2
_chemical_formula_sum   'Be2 Si2 H20 C4 N8 Cl12'
_cell_volume   644.03778936
_cell_formula_units_Z   2
loop_
 _symmetry_equiv_pos_site_id
 _symmetry_equiv_pos_as_xyz
  1  'x, y, z'
loop_
 _atom_site_type_symbol
 _atom_site_label
 _atom_site_symmetry_multiplicity
 _atom_site_fract_x
 _atom_site_fract_y
 _atom_site_fract_z
 _atom_site_occupancy
  C  C0  1  0.52019119  0.30929698  0.51020583  1
  C  C1  1  0.99325358  0.20235753  0.00750202  1
  C  C2  1  0.54567994  0.79016518  0.55023668  1
  C  C3  1  0.98756876  0.69874623  0.96676589  1
  N  N4  1  0.54520780  0.22830408  0.61525660  1
  N  N5  1  0.52800375  0.29388774  0.34985875  1
  N  N6  1  0.98985150  0.19758864  0.84695400  1
  N  N7  1  0.93749375  0.29131723  0.10269588  1
  N  N8  1  0.52488422  0.70551371  0.65519444  1
  N  N9  1  0.51737634  0.78768975  0.39530261  1
  N  N10  1  0.03019043  0.73833912  0.81363238  1
  N  N11  1  0.90974470  0.75831835  0.10044410  1
  H  H12  1  0.49129179  0.39475850  0.55961296  1
  H  H13  1  0.52461997  0.24234001  0.74196465  1
  H  H14  1  0.56065185  0.14629129  0.57710450  1
  H  H15  1  0.50170382  0.35995989  0.27304974  1
  H  H16  1  0.55015141  0.21560654  0.29585786  1
  H  H17  1  0.04353795  0.12672240  0.06600403  1
  H  H18  1  0.04309451  0.12634724  0.78045663  1
  H  H19  1  0.94943178  0.26535168  0.78159816  1
  H  H20  1  0.95153262  0.29015879  0.22592066  1
  H  H21  1  0.89341356  0.36524840  0.05382333  1
  H  H22  1  0.59124505  0.86876867  0.59693668  1
  H  H23  1  0.54042672  0.71690384  0.77658098  1
  H  H24  1  0.48089065  0.62886088  0.62362530  1
  H  H25  1  0.53621641  0.86052918  0.32766230  1
  H  H26  1  0.46405434  0.72031907  0.34256304  1
  H  H27  1  0.02042858  0.60944320  0.98364442  1
  H  H28  1  0.08385944  0.68487746  0.71547599  1
  H  H29  1  0.99426611  0.81974376  0.78694080  1
  H  H30  1  0.88399147  0.71839862  0.21334761  1
  H  H31  1  0.87254346  0.84227863  0.09666458  1
  Be  Be32  1  0.53957248  0.03549483  0.05117165  1
  Be  Be33  1  0.00858573  0.47526654  0.43685364  1
  Si  Si34  1  0.07168247  0.01256638  0.41019941  1
  Si  Si35  1  0.47647329  0.48037670  0.03505479  1
  Cl  Cl36  1  0.46036768  0.19329536  0.00711538  1
  Cl  Cl37  1  0.27358938  0.94943054  0.13953174  1
  Cl  Cl38  1  0.68773310  0.02641830  0.24466840  1
  Cl  Cl39  1  0.02706677  0.31661377  0.47684134  1
  Cl  Cl40  1  0.27089346  0.01336266  0.59688536  1
  Cl  Cl41  1  0.69672105  0.95400355  0.85156030  1
  Cl  Cl42  1  0.44438329  0.66519094  0.05145219  1
  Cl  Cl43  1  0.79731502  0.53730071  0.33323447  1
  Cl  Cl44  1  0.21831496  0.56907140  0.47450577  1
  Cl  Cl45  1  0.99589416  0.83932272  0.45801191  1
  Cl  Cl46  1  0.27083296  0.45633651  0.86321902  1
  Cl  Cl47  1  0.75379606  0.47157949  0.83691597  1
