# generated using pymatgen
data_BeAlH10C2(N2Cl3)2
_symmetry_space_group_name_H-M   'P 1'
_cell_length_a   7.82568093
_cell_length_b   10.44983442
_cell_length_c   8.05613202
_cell_angle_alpha   89.58170131
_cell_angle_beta   87.30401704
_cell_angle_gamma   89.38473506
_symmetry_Int_Tables_number   1
_chemical_formula_structural   BeAlH10C2(N2Cl3)2
_chemical_formula_sum   'Be2 Al2 H20 C4 N8 Cl12'
_cell_volume   658.02451653
_cell_formula_units_Z   2
loop_
 _symmetry_equiv_pos_site_id
 _symmetry_equiv_pos_as_xyz
  1  'x, y, z'
loop_
 _atom_site_type_symbol
 _atom_site_label
 _atom_site_symmetry_multiplicity
 _atom_site_fract_x
 _atom_site_fract_y
 _atom_site_fract_z
 _atom_site_occupancy
  C  C0  1  0.50212365  0.28878939  0.47912464  1
  C  C1  1  0.98181467  0.20098130  0.00921117  1
  C  C2  1  0.50570629  0.79979613  0.51370194  1
  C  C3  1  0.01605253  0.71481871  0.00792326  1
  N  N4  1  0.60543997  0.22976576  0.57902782  1
  N  N5  1  0.38742363  0.23501758  0.39018988  1
  N  N6  1  0.07055510  0.25755090  0.88843212  1
  N  N7  1  0.88891551  0.25751796  0.12747688  1
  N  N8  1  0.61812995  0.74140033  0.60325232  1
  N  N9  1  0.40688256  0.74535861  0.40792748  1
  N  N10  1  0.11763146  0.77005458  0.89602905  1
  N  N11  1  0.91467368  0.77262811  0.11825789  1
  H  H12  1  0.51453125  0.39215605  0.46741407  1
  H  H13  1  0.69240925  0.28163772  0.63951998  1
  H  H14  1  0.60164381  0.13426049  0.60678872  1
  H  H15  1  0.31687209  0.29206901  0.31576464  1
  H  H16  1  0.36644796  0.13876261  0.38775488  1
  H  H17  1  0.98635027  0.09680760  0.01139249  1
  H  H18  1  0.14198617  0.20072678  0.80705288  1
  H  H19  1  0.07194797  0.35390822  0.86885031  1
  H  H20  1  0.82002331  0.20094428  0.20918793  1
  H  H21  1  0.86989786  0.35417991  0.13464522  1
  H  H22  1  0.49175665  0.90281130  0.52939143  1
  H  H23  1  0.68792147  0.79529654  0.68101857  1
  H  H24  1  0.63354190  0.64462997  0.60573481  1
  H  H25  1  0.31842674  0.79989127  0.34952076  1
  H  H26  1  0.41283626  0.65047225  0.37936183  1
  H  H27  1  0.01605656  0.61051644  0.01000430  1
  H  H28  1  0.19457785  0.71360384  0.82121028  1
  H  H29  1  0.13106016  0.86694002  0.88294632  1
  H  H30  1  0.83543805  0.71762387  0.19293208  1
  H  H31  1  0.89795532  0.86943748  0.12558734  1
  Be  Be32  1  0.48351409  0.93268017  0.11534134  1
  Be  Be33  1  0.93259677  0.51563967  0.45091984  1
  Al  Al34  1  0.98974203  0.01041150  0.51974890  1
  Al  Al35  1  0.46904301  0.43734595  0.94350879  1
  Cl  Cl36  1  0.48592890  0.23489755  0.96807979  1
  Cl  Cl37  1  0.25198370  0.98508855  0.17834625  1
  Cl  Cl38  1  0.66470642  0.00617380  0.23894836  1
  Cl  Cl39  1  0.00542020  0.34847471  0.51197870  1
  Cl  Cl40  1  0.24422051  0.02521325  0.68259443  1
  Cl  Cl41  1  0.80498125  0.98882760  0.75880895  1
  Cl  Cl42  1  0.52032770  0.78537630  0.98419385  1
  Cl  Cl43  1  0.74113616  0.52722457  0.30500597  1
  Cl  Cl44  1  0.32220559  0.50011984  0.16579071  1
  Cl  Cl45  1  0.02481683  0.67258000  0.51931960  1
  Cl  Cl46  1  0.31594986  0.50232896  0.74221100  1
  Cl  Cl47  1  0.72641641  0.49732554  0.86867500  1
