# generated using pymatgen
data_MgBeH10C2(N2Cl3)2
_symmetry_space_group_name_H-M   'P 1'
_cell_length_a   6.29927037
_cell_length_b   13.16441423
_cell_length_c   7.93083683
_cell_angle_alpha   90.21266539
_cell_angle_beta   90.05636572
_cell_angle_gamma   89.91468996
_symmetry_Int_Tables_number   1
_chemical_formula_structural   MgBeH10C2(N2Cl3)2
_chemical_formula_sum   'Mg2 Be2 H20 C4 N8 Cl12'
_cell_volume   657.66862327
_cell_formula_units_Z   2
loop_
 _symmetry_equiv_pos_site_id
 _symmetry_equiv_pos_as_xyz
  1  'x, y, z'
loop_
 _atom_site_type_symbol
 _atom_site_label
 _atom_site_symmetry_multiplicity
 _atom_site_fract_x
 _atom_site_fract_y
 _atom_site_fract_z
 _atom_site_occupancy
  C  C0  1  0.49258198  0.30851805  0.51899179  1
  C  C1  1  0.99237446  0.19133571  0.98135601  1
  C  C2  1  0.53418320  0.81667399  0.58017123  1
  C  C3  1  0.03254626  0.68314810  0.91931421  1
  N  N4  1  0.48311066  0.29600074  0.68300790  1
  N  N5  1  0.45405335  0.23668628  0.40863877  1
  N  N6  1  0.98268149  0.20409152  0.81738090  1
  N  N7  1  0.95407624  0.26307347  0.09196527  1
  N  N8  1  0.51035283  0.73391853  0.66977315  1
  N  N9  1  0.50012736  0.82340092  0.41761856  1
  N  N10  1  0.01123594  0.76588739  0.82914568  1
  N  N11  1  0.99780045  0.67710057  0.08177205  1
  H  H12  1  0.53353250  0.38407709  0.47374320  1
  H  H13  1  0.52566010  0.35472027  0.76131252  1
  H  H14  1  0.45466063  0.22737350  0.73833671  1
  H  H15  1  0.46237822  0.24900304  0.28158475  1
  H  H16  1  0.40521625  0.16599939  0.44715151  1
  H  H17  1  0.03329694  0.11564135  0.02633999  1
  H  H18  1  0.02527439  0.14543117  0.73890751  1
  H  H19  1  0.95431426  0.27284686  0.76229103  1
  H  H20  1  0.96252353  0.25056973  0.21896935  1
  H  H21  1  0.90530984  0.33390487  0.05371126  1
  H  H22  1  0.58304161  0.88563141  0.64676898  1
  H  H23  1  0.52915891  0.73621277  0.79851935  1
  H  H24  1  0.45889492  0.66675086  0.61799045  1
  H  H25  1  0.54488374  0.88838118  0.35776602  1
  H  H26  1  0.46310642  0.76318114  0.34088236  1
  H  H27  1  0.07981183  0.61367903  0.85335480  1
  H  H28  1  0.03042971  0.76322660  0.70048024  1
  H  H29  1  0.96149417  0.83350464  0.88048312  1
  H  H30  1  0.04054854  0.61200762  0.14238733  1
  H  H31  1  0.96218986  0.73781004  0.15789049  1
  Be  Be32  1  0.55704468  0.03550270  0.07459713  1
  Be  Be33  1  0.05659464  0.46457426  0.42570207  1
  Mg  Mg34  1  0.06929538  0.95849190  0.36605574  1
  Mg  Mg35  1  0.56739876  0.54146197  0.13419502  1
  Cl  Cl36  1  0.47719755  0.17708629  0.02365528  1
  Cl  Cl37  1  0.27195931  0.95664178  0.11239122  1
  Cl  Cl38  1  0.73234575  0.03806667  0.30666490  1
  Cl  Cl39  1  0.97715447  0.32307024  0.47672638  1
  Cl  Cl40  1  0.23340753  0.04200178  0.58507748  1
  Cl  Cl41  1  0.73005590  0.96689068  0.90292361  1
  Cl  Cl42  1  0.49954831  0.70792180  0.07031943  1
  Cl  Cl43  1  0.77126784  0.54372814  0.38765766  1
  Cl  Cl44  1  0.23134169  0.46191705  0.19372921  1
  Cl  Cl45  1  0.00201750  0.79196002  0.42908861  1
  Cl  Cl46  1  0.22967025  0.53294506  0.59762635  1
  Cl  Cl47  1  0.73286917  0.45801479  0.91568814  1
