# generated using pymatgen
data_BeH10C3(N2Cl3)2
_symmetry_space_group_name_H-M   'P 1'
_cell_length_a   6.76652153
_cell_length_b   11.00492996
_cell_length_c   8.23546869
_cell_angle_alpha   87.88184294
_cell_angle_beta   89.98708791
_cell_angle_gamma   89.94496826
_symmetry_Int_Tables_number   1
_chemical_formula_structural   BeH10C3(N2Cl3)2
_chemical_formula_sum   'Be2 H20 C6 N8 Cl12'
_cell_volume   612.83565080
_cell_formula_units_Z   2
loop_
 _symmetry_equiv_pos_site_id
 _symmetry_equiv_pos_as_xyz
  1  'x, y, z'
loop_
 _atom_site_type_symbol
 _atom_site_label
 _atom_site_symmetry_multiplicity
 _atom_site_fract_x
 _atom_site_fract_y
 _atom_site_fract_z
 _atom_site_occupancy
  C  C0  1  0.51019716  0.29984572  0.48256933  1
  C  C1  1  0.00900059  0.20049936  0.01749964  1
  C  C2  1  0.47862915  0.80939040  0.48544803  1
  C  C3  1  0.97976636  0.69055025  0.01433797  1
  N  N4  1  0.54645497  0.21546469  0.59562829  1
  N  N5  1  0.55931659  0.29195437  0.32947062  1
  N  N6  1  0.04708964  0.28501335  0.90511747  1
  N  N7  1  0.05789519  0.20741435  0.17078743  1
  N  N8  1  0.50584561  0.75630460  0.62881938  1
  N  N9  1  0.40839361  0.75778127  0.35661432  1
  N  N10  1  0.00728150  0.74368100  0.87103908  1
  N  N11  1  0.90988403  0.74227163  0.14327637  1
  H  H12  1  0.43345905  0.38177776  0.51895979  1
  H  H13  1  0.51003481  0.22654801  0.71580806  1
  H  H14  1  0.62974578  0.14097942  0.57279766  1
  H  H15  1  0.53247299  0.36259518  0.24788841  1
  H  H16  1  0.62656470  0.21602719  0.28695433  1
  H  H17  1  0.93082379  0.11935940  0.98040145  1
  H  H18  1  0.01092569  0.27465351  0.78473766  1
  H  H19  1  0.13186901  0.35858327  0.92881121  1
  H  H20  1  0.02991064  0.13665023  0.25185742  1
  H  H21  1  0.12643715  0.28261391  0.21385645  1
  H  H22  1  0.51971382  0.90504467  0.47038150  1
  H  H23  1  0.56189728  0.80718869  0.72036605  1
  H  H24  1  0.46756723  0.66734849  0.65103138  1
  H  H25  1  0.38227044  0.81180444  0.25362242  1
  H  H26  1  0.36489077  0.66839359  0.35615515  1
  H  H27  1  0.02031286  0.59474905  0.02919994  1
  H  H28  1  0.06307040  0.69270050  0.77939876  1
  H  H29  1  0.96986557  0.83282075  0.84901095  1
  H  H30  1  0.88339626  0.68823611  0.24618986  1
  H  H31  1  0.86653429  0.83175024  0.14379792  1
  Be  Be32  1  0.53482170  0.03101287  0.02360380  1
  Be  Be33  1  0.03543668  0.46896040  0.47589821  1
  C  C34  1  0.07303734  0.99600011  0.48477325  1
  C  C35  1  0.57475892  0.50405131  0.01526645  1
  Cl  Cl36  1  0.49709473  0.20857846  0.97408482  1
  Cl  Cl37  1  0.28334698  0.93768469  0.05871536  1
  Cl  Cl38  1  0.70083184  0.00943977  0.22818640  1
  Cl  Cl39  1  0.99744994  0.29165273  0.52646176  1
  Cl  Cl40  1  0.19379459  0.02189882  0.66247787  1
  Cl  Cl41  1  0.69519052  0.96730582  0.82910869  1
  Cl  Cl42  1  0.47906220  0.64954961  0.00305794  1
  Cl  Cl43  1  0.78402855  0.56268763  0.44088194  1
  Cl  Cl44  1  0.20131729  0.48988402  0.27116117  1
  Cl  Cl45  1  0.97780338  0.85052332  0.49735781  1
  Cl  Cl46  1  0.19609400  0.53267913  0.67024301  1
  Cl  Cl47  1  0.69443374  0.47815891  0.83699195  1
