# generated using pymatgen
data_BiBH10C2(N2Cl3)2
_symmetry_space_group_name_H-M   'P 1'
_cell_length_a   7.88439490
_cell_length_b   10.61888989
_cell_length_c   7.91793232
_cell_angle_alpha   90.51540559
_cell_angle_beta   90.01619829
_cell_angle_gamma   90.00103742
_symmetry_Int_Tables_number   1
_chemical_formula_structural   BiBH10C2(N2Cl3)2
_chemical_formula_sum   'Bi2 B2 H20 C4 N8 Cl12'
_cell_volume   662.89032712
_cell_formula_units_Z   2
loop_
 _symmetry_equiv_pos_site_id
 _symmetry_equiv_pos_as_xyz
  1  'x, y, z'
loop_
 _atom_site_type_symbol
 _atom_site_label
 _atom_site_symmetry_multiplicity
 _atom_site_fract_x
 _atom_site_fract_y
 _atom_site_fract_z
 _atom_site_occupancy
  C  C0  1  0.49718611  0.29350547  0.50161041  1
  C  C1  1  0.99729383  0.20641632  0.99837866  1
  C  C2  1  0.50228690  0.79038525  0.50496443  1
  C  C3  1  0.00216207  0.70954789  0.99499826  1
  N  N4  1  0.60159007  0.23868484  0.60633839  1
  N  N5  1  0.39819231  0.23672424  0.39221052  1
  N  N6  1  0.10160551  0.26130212  0.89362373  1
  N  N7  1  0.89825669  0.26313861  0.10771815  1
  N  N8  1  0.60584914  0.73586012  0.61082773  1
  N  N9  1  0.39352964  0.73353067  0.40468857  1
  N  N10  1  0.10547574  0.76417543  0.88903845  1
  N  N11  1  0.89342215  0.76630268  0.09531689  1
  H  H12  1  0.49147163  0.39590937  0.50639904  1
  H  H13  1  0.67599254  0.29428480  0.68210361  1
  H  H14  1  0.61149255  0.14343011  0.61908666  1
  H  H15  1  0.31932372  0.29064861  0.32013740  1
  H  H16  1  0.39952738  0.14195930  0.37037199  1
  H  H17  1  0.99176258  0.10397985  0.99364235  1
  H  H18  1  0.17599920  0.20573855  0.81787978  1
  H  H19  1  0.11130769  0.35653764  0.88082040  1
  H  H20  1  0.81950199  0.20917525  0.17981818  1
  H  H21  1  0.89951862  0.35789003  0.12950617  1
  H  H22  1  0.50728301  0.89278916  0.49943205  1
  H  H23  1  0.68393065  0.79307350  0.68093115  1
  H  H24  1  0.61675762  0.64062246  0.62584323  1
  H  H25  1  0.32212368  0.78829262  0.32648338  1
  H  H26  1  0.37306691  0.63848501  0.39991457  1
  H  H27  1  0.00737848  0.60714533  1.00055379  1
  H  H28  1  0.18349812  0.70705838  0.81878865  1
  H  H29  1  0.11613594  0.85942184  0.87399270  1
  H  H30  1  0.82240558  0.71150789  0.17378115  1
  H  H31  1  0.87297665  0.86134224  0.10023372  1
  B  B32  1  0.46108115  0.97172953  0.03672606  1
  B  B33  1  0.96133827  0.52866530  0.46326071  1
  Bi  Bi34  1  0.00192117  0.00684334  0.49240347  1
  Bi  Bi35  1  0.50199209  0.49328877  0.00762650  1
  Cl  Cl36  1  0.50003735  0.25708944  0.00221744  1
  Cl  Cl37  1  0.24532721  0.97973814  0.20477184  1
  Cl  Cl38  1  0.72854744  0.01412995  0.27955192  1
  Cl  Cl39  1  1.00006033  0.24310066  0.49784551  1
  Cl  Cl40  1  0.26900559  0.01242534  0.70896752  1
  Cl  Cl41  1  0.79691102  0.98299209  0.75369381  1
  Cl  Cl42  1  0.49719813  0.80118579  0.00630616  1
  Cl  Cl43  1  0.74621527  0.52014977  0.29586703  1
  Cl  Cl44  1  0.22870543  0.48587489  0.22044322  1
  Cl  Cl45  1  0.99738439  0.69935563  0.49343527  1
  Cl  Cl46  1  0.29696342  0.51708186  0.74643565  1
  Cl  Cl47  1  0.76902640  0.48754690  0.79111849  1
