# generated using pymatgen
data_TlBH10C2(N2Cl3)2
_symmetry_space_group_name_H-M   'P 1'
_cell_length_a   8.31411517
_cell_length_b   9.59730832
_cell_length_c   8.43314437
_cell_angle_alpha   88.50383476
_cell_angle_beta   90.00001631
_cell_angle_gamma   89.99747937
_symmetry_Int_Tables_number   1
_chemical_formula_structural   TlBH10C2(N2Cl3)2
_chemical_formula_sum   'Tl2 B2 H20 C4 N8 Cl12'
_cell_volume   672.67754566
_cell_formula_units_Z   2
loop_
 _symmetry_equiv_pos_site_id
 _symmetry_equiv_pos_as_xyz
  1  'x, y, z'
loop_
 _atom_site_type_symbol
 _atom_site_label
 _atom_site_symmetry_multiplicity
 _atom_site_fract_x
 _atom_site_fract_y
 _atom_site_fract_z
 _atom_site_occupancy
  C  C0  1  0.47710265  0.27033083  0.51463161  1
  C  C1  1  0.97701825  0.22967586  0.98537823  1
  C  C2  1  0.50414101  0.80137423  0.47227695  1
  C  C3  1  0.00417704  0.69863307  0.02772000  1
  N  N4  1  0.59918575  0.21793176  0.59437267  1
  N  N5  1  0.42272929  0.22203148  0.37999055  1
  N  N6  1  0.09908822  0.28206674  0.90565532  1
  N  N7  1  0.92261812  0.27797937  0.12001280  1
  N  N8  1  0.56850214  0.76225352  0.60746507  1
  N  N9  1  0.38691948  0.73563767  0.39942304  1
  N  N10  1  0.06853106  0.73775366  0.89253029  1
  N  N11  1  0.88694057  0.76435287  0.10056823  1
  H  H12  1  0.41473478  0.35933964  0.56568827  1
  H  H13  1  0.63291745  0.26141955  0.69777957  1
  H  H14  1  0.66738233  0.13757653  0.55345980  1
  H  H15  1  0.34060385  0.28242428  0.31714644  1
  H  H16  1  0.48713718  0.14889422  0.32025175  1
  H  H17  1  0.91466057  0.14066172  0.93432463  1
  H  H18  1  0.13285259  0.23857287  0.80226057  1
  H  H19  1  0.16729863  0.36241445  0.94658997  1
  H  H20  1  0.84050729  0.21757651  0.18284931  1
  H  H21  1  0.98700508  0.35111745  0.17975706  1
  H  H22  1  0.55359170  0.89440623  0.41224833  1
  H  H23  1  0.65674029  0.82306845  0.65717909  1
  H  H24  1  0.52312962  0.67739231  0.67030816  1
  H  H25  1  0.34928888  0.77257076  0.29135986  1
  H  H26  1  0.33522842  0.64625378  0.44372996  1
  H  H27  1  0.05365539  0.60560682  0.08775228  1
  H  H28  1  0.15677027  0.67694363  0.84282037  1
  H  H29  1  0.02313058  0.82261035  0.82968415  1
  H  H30  1  0.84932667  0.72742230  0.20863478  1
  H  H31  1  0.83522925  0.85373421  0.05626505  1
  B  B32  1  0.39220173  0.00120961  0.96654212  1
  B  B33  1  0.89220732  0.49881026  0.53346185  1
  Tl  Tl34  1  0.04053648  0.99768644  0.47075018  1
  Tl  Tl35  1  0.54051546  0.50231645  0.02925406  1
  Cl  Cl36  1  0.51555078  0.16152906  0.98709760  1
  Cl  Cl37  1  0.22883851  0.99717238  0.11807909  1
  Cl  Cl38  1  0.74267394  0.03562498  0.30141528  1
  Cl  Cl39  1  0.01554626  0.33847496  0.51291449  1
  Cl  Cl40  1  0.30768488  0.00075053  0.76304664  1
  Cl  Cl41  1  0.83522071  0.97110557  0.74899303  1
  Cl  Cl42  1  0.51823500  0.84377880  0.00274855  1
  Cl  Cl43  1  0.72883676  0.50285193  0.38192627  1
  Cl  Cl44  1  0.24265333  0.46431872  0.19857277  1
  Cl  Cl45  1  0.01824878  0.65622299  0.49723347  1
  Cl  Cl46  1  0.33522522  0.52888479  0.75099809  1
  Cl  Cl47  1  0.80769980  0.49929838  0.73695710  1
