# generated using pymatgen
data_BH10AuC2(N2Cl3)2
_symmetry_space_group_name_H-M   'P 1'
_cell_length_a   8.09819602
_cell_length_b   10.62332740
_cell_length_c   7.88434436
_cell_angle_alpha   90.98840099
_cell_angle_beta   89.95625375
_cell_angle_gamma   90.00380785
_symmetry_Int_Tables_number   1
_chemical_formula_structural   BH10AuC2(N2Cl3)2
_chemical_formula_sum   'B2 H20 Au2 C4 N8 Cl12'
_cell_volume   678.18734843
_cell_formula_units_Z   2
loop_
 _symmetry_equiv_pos_site_id
 _symmetry_equiv_pos_as_xyz
  1  'x, y, z'
loop_
 _atom_site_type_symbol
 _atom_site_label
 _atom_site_symmetry_multiplicity
 _atom_site_fract_x
 _atom_site_fract_y
 _atom_site_fract_z
 _atom_site_occupancy
  C  C0  1  0.49593213  0.27382965  0.50778436  1
  C  C1  1  0.99604298  0.22616295  0.99227293  1
  C  C2  1  0.51024476  0.81213721  0.48676711  1
  C  C3  1  0.01021040  0.68785849  0.01320358  1
  N  N4  1  0.60246271  0.22647921  0.61417631  1
  N  N5  1  0.40135874  0.21186525  0.40000580  1
  N  N6  1  0.10263358  0.27356876  0.88579269  1
  N  N7  1  0.90127441  0.28809113  0.10003607  1
  N  N8  1  0.59834720  0.75808420  0.60418825  1
  N  N9  1  0.39800449  0.75734435  0.39057312  1
  N  N10  1  0.09842316  0.74190323  0.89572986  1
  N  N11  1  0.89784819  0.74265154  0.10943212  1
  H  H12  1  0.48152443  0.37581301  0.51098635  1
  H  H13  1  0.67001691  0.28759278  0.68756035  1
  H  H14  1  0.63074040  0.13289433  0.62055110  1
  H  H15  1  0.33240224  0.26542047  0.31971483  1
  H  H16  1  0.40668687  0.11767502  0.37555308  1
  H  H17  1  0.98179102  0.12416900  0.98916193  1
  H  H18  1  0.17034341  0.21247377  0.81244604  1
  H  H19  1  0.13076616  0.36716768  0.87930541  1
  H  H20  1  0.83226166  0.23450038  0.18036300  1
  H  H21  1  0.90639762  0.38229665  0.12439691  1
  H  H22  1  0.53441009  0.91155271  0.46519174  1
  H  H23  1  0.67818550  0.81136765  0.67590741  1
  H  H24  1  0.57726222  0.66688925  0.63889103  1
  H  H25  1  0.34304796  0.80881864  0.29819566  1
  H  H26  1  0.37332187  0.66251075  0.39117432  1
  H  H27  1  0.03435614  0.58844705  0.03481264  1
  H  H28  1  0.17832879  0.68860250  0.82397609  1
  H  H29  1  0.07735159  0.83307816  0.86099936  1
  H  H30  1  0.84280187  0.69118203  0.20184241  1
  H  H31  1  0.87314744  0.83747420  0.10877434  1
  B  B32  1  0.39137575  0.99856069  0.97742184  1
  B  B33  1  0.89132231  0.50145917  0.52262437  1
  Au  Au34  1  0.86777635  0.99670854  0.52215234  1
  Au  Au35  1  0.36783616  0.50332887  0.97782268  1
  Cl  Cl36  1  0.51048610  0.14534862  0.00392943  1
  Cl  Cl37  1  0.22722007  0.99391694  0.14855177  1
  Cl  Cl38  1  0.80624861  0.02243563  0.24460835  1
  Cl  Cl39  1  0.01040764  0.35466039  0.49607483  1
  Cl  Cl40  1  0.29180267  0.00333625  0.76036865  1
  Cl  Cl41  1  0.86027691  0.96585052  0.80668232  1
  Cl  Cl42  1  0.51094769  0.85209121  0.99536670  1
  Cl  Cl43  1  0.72730935  0.50607989  0.35159285  1
  Cl  Cl44  1  0.30672845  0.47756216  0.25553142  1
  Cl  Cl45  1  0.01092021  0.64792680  0.50457562  1
  Cl  Cl46  1  0.35990820  0.53418423  0.69329916  1
  Cl  Cl47  1  0.79152592  0.49671109  0.73973620  1
