# generated using pymatgen
data_BH10IrC2(N2Cl3)2
_symmetry_space_group_name_H-M   'P 1'
_cell_length_a   7.53779303
_cell_length_b   10.85854105
_cell_length_c   7.44076783
_cell_angle_alpha   87.60430062
_cell_angle_beta   89.99498469
_cell_angle_gamma   89.99490765
_symmetry_Int_Tables_number   1
_chemical_formula_structural   BH10IrC2(N2Cl3)2
_chemical_formula_sum   'B2 H20 Ir2 C4 N8 Cl12'
_cell_volume   608.49033555
_cell_formula_units_Z   2
loop_
 _symmetry_equiv_pos_site_id
 _symmetry_equiv_pos_as_xyz
  1  'x, y, z'
loop_
 _atom_site_type_symbol
 _atom_site_label
 _atom_site_symmetry_multiplicity
 _atom_site_fract_x
 _atom_site_fract_y
 _atom_site_fract_z
 _atom_site_occupancy
  C  C0  1  0.50387543  0.29981086  0.54126911  1
  C  C1  1  0.00372166  0.20012690  0.95881655  1
  C  C2  1  0.51890557  0.78464607  0.51876630  1
  C  C3  1  0.01900862  0.71528535  0.98106183  1
  N  N4  1  0.60083910  0.24052228  0.66340906  1
  N  N5  1  0.38243884  0.25204501  0.43934750  1
  N  N6  1  0.10062481  0.25928270  0.83651495  1
  N  N7  1  0.88264047  0.24808569  0.06104207  1
  N  N8  1  0.62896321  0.74830135  0.64651803  1
  N  N9  1  0.39343992  0.71644744  0.45087379  1
  N  N10  1  0.12939303  0.75162183  0.85364160  1
  N  N11  1  0.89351748  0.78357400  0.04887972  1
  H  H12  1  0.52475121  0.39882619  0.52480953  1
  H  H13  1  0.68500926  0.29210960  0.73741473  1
  H  H14  1  0.60723229  0.14659016  0.67801205  1
  H  H15  1  0.32054508  0.31091275  0.34671474  1
  H  H16  1  0.34180542  0.16212451  0.45628297  1
  H  H17  1  0.02425195  0.10107249  0.97516624  1
  H  H18  1  0.18453299  0.20756751  0.76234545  1
  H  H19  1  0.10735005  0.35321015  0.82199534  1
  H  H20  1  0.82069595  0.18929002  0.15372661  1
  H  H21  1  0.84223879  0.33805188  0.04414683  1
  H  H22  1  0.53608300  0.87860053  0.46338038  1
  H  H23  1  0.72155483  0.81151212  0.68495956  1
  H  H24  1  0.62795976  0.66202044  0.70903845  1
  H  H25  1  0.31815074  0.75172759  0.34771568  1
  H  H26  1  0.37299155  0.62637257  0.49048802  1
  H  H27  1  0.03581750  0.62125535  0.03626010  1
  H  H28  1  0.22193066  0.68832292  0.81524221  1
  H  H29  1  0.12874018  0.83796533  0.79128638  1
  H  H30  1  0.81791148  0.74825176  0.15175671  1
  H  H31  1  0.87328920  0.87367421  0.00932586  1
  B  B32  1  0.37840003  0.99227004  0.10201959  1
  B  B33  1  0.87839407  0.50801745  0.39798380  1
  Ir  Ir34  1  0.02716057  0.00258588  0.47225952  1
  Ir  Ir35  1  0.52720017  0.49741672  0.02771091  1
  Cl  Cl36  1  0.43456225  0.14522862  0.06372490  1
  Cl  Cl37  1  0.19129856  0.94096761  0.23678395  1
  Cl  Cl38  1  0.77362251  0.01379014  0.29456503  1
  Cl  Cl39  1  0.93464340  0.35507931  0.43644218  1
  Cl  Cl40  1  0.27526526  0.00745805  0.66276281  1
  Cl  Cl41  1  0.84217191  0.99679788  0.71983693  1
  Cl  Cl42  1  0.49238327  0.86878836  0.01434415  1
  Cl  Cl43  1  0.69132834  0.55919373  0.26306357  1
  Cl  Cl44  1  0.27366872  0.48627628  0.20547987  1
  Cl  Cl45  1  0.99221569  0.63157249  0.48556660  1
  Cl  Cl46  1  0.34218825  0.50300053  0.78016740  1
  Cl  Cl47  1  0.77530629  0.49241231  0.83718523  1
