# generated using pymatgen
data_CaGeH12C2(I3N)2
_symmetry_space_group_name_H-M   'P 1'
_cell_length_a   8.45085784
_cell_length_b   12.13367813
_cell_length_c   8.31327292
_cell_angle_alpha   90.49334206
_cell_angle_beta   90.00209938
_cell_angle_gamma   90.00326662
_symmetry_Int_Tables_number   1
_chemical_formula_structural   CaGeH12C2(I3N)2
_chemical_formula_sum   'Ca2 Ge2 H24 C4 I12 N4'
_cell_volume   852.41131108
_cell_formula_units_Z   2
loop_
 _symmetry_equiv_pos_site_id
 _symmetry_equiv_pos_as_xyz
  1  'x, y, z'
loop_
 _atom_site_type_symbol
 _atom_site_label
 _atom_site_symmetry_multiplicity
 _atom_site_fract_x
 _atom_site_fract_y
 _atom_site_fract_z
 _atom_site_occupancy
  C  C0  1  0.39974054  0.25017312  0.41606477  1
  C  C1  1  0.90066739  0.24995873  0.08476745  1
  C  C2  1  0.60025337  0.74983164  0.58394648  1
  C  C3  1  0.09933811  0.75004395  0.91524540  1
  N  N4  1  0.54083277  0.25020004  0.52200812  1
  N  N5  1  0.04124956  0.24983062  0.97815086  1
  N  N6  1  0.45916292  0.74980362  0.47800041  1
  N  N7  1  0.95875902  0.75016905  0.02186575  1
  H  H8  1  0.43923041  0.24981129  0.29071034  1
  H  H9  1  0.32962439  0.17649291  0.44039107  1
  H  H10  1  0.33084895  0.32461335  0.44098797  1
  H  H11  1  0.60941470  0.18051645  0.49873258  1
  H  H12  1  0.61009775  0.31917771  0.49880574  1
  H  H13  1  0.51102930  0.25099778  0.64386398  1
  H  H14  1  0.94087159  0.25038048  0.20994519  1
  H  H15  1  0.83156802  0.17556206  0.06037645  1
  H  H16  1  0.83054900  0.32368829  0.06079372  1
  H  H17  1  0.11049182  0.18077718  0.00102357  1
  H  H18  1  0.11000031  0.31943078  0.00099675  1
  H  H19  1  0.01081502  0.24898885  0.85638888  1
  H  H20  1  0.56076547  0.75019244  0.70929936  1
  H  H21  1  0.66914425  0.67538861  0.55902106  1
  H  H22  1  0.67037277  0.82350949  0.55961892  1
  H  H23  1  0.39058027  0.81949010  0.50127908  1
  H  H24  1  0.38989659  0.68082837  0.50120415  1
  H  H25  1  0.48896526  0.74900797  0.35614704  1
  H  H26  1  0.05913276  0.74962419  0.79006854  1
  H  H27  1  0.16843687  0.82444169  0.93963826  1
  H  H28  1  0.16945984  0.67631533  0.93921536  1
  H  H29  1  0.88951349  0.81922079  0.99899533  1
  H  H30  1  0.89000976  0.68056729  0.99901827  1
  H  H31  1  0.98919508  0.75100958  0.14362542  1
  Ca  Ca32  1  0.50000293  0.00000167  0.00000610  1
  Ca  Ca33  1  0.99999977  0.50000304  0.50000505  1
  Ge  Ge34  1  -0.00000011  0.00000347  0.50000709  1
  Ge  Ge35  1  0.50000010  0.50000178  0.00000448  1
  I  I36  1  0.47791708  0.25445457  0.94522930  1
  I  I37  1  0.17992686  0.01400070  0.18638412  1
  I  I38  1  0.68964124  0.01090205  0.32215353  1
  I  I39  1  0.97729901  0.24555441  0.55520789  1
  I  I40  1  0.31035739  0.98910317  0.67786334  1
  I  I41  1  0.82007887  0.98600069  0.81363044  1
  I  I42  1  0.52208871  0.74554978  0.05478358  1
  I  I43  1  0.67988919  0.48597232  0.31360524  1
  I  I44  1  0.18967381  0.48913569  0.17783986  1
  I  I45  1  0.02269797  0.75445075  0.44480683  1
  I  I46  1  0.32011119  0.51403112  0.68640506  1
  I  I47  1  0.81032236  0.51086929  0.82216842  1
