# generated using pymatgen
data_ReBH10C2(N2Cl3)2
_symmetry_space_group_name_H-M   'P 1'
_cell_length_a   8.56380733
_cell_length_b   9.16704220
_cell_length_c   9.36856464
_cell_angle_alpha   90.28865505
_cell_angle_beta   98.37487033
_cell_angle_gamma   86.04025063
_symmetry_Int_Tables_number   1
_chemical_formula_structural   ReBH10C2(N2Cl3)2
_chemical_formula_sum   'Re2 B2 H20 C4 N8 Cl12'
_cell_volume   725.88784388
_cell_formula_units_Z   2
loop_
 _symmetry_equiv_pos_site_id
 _symmetry_equiv_pos_as_xyz
  1  'x, y, z'
loop_
 _atom_site_type_symbol
 _atom_site_label
 _atom_site_symmetry_multiplicity
 _atom_site_fract_x
 _atom_site_fract_y
 _atom_site_fract_z
 _atom_site_occupancy
  C  C0  1  0.70842459  0.26762094  0.92098818  1
  C  C1  1  0.85289960  0.28513048  0.98819252  1
  C  C2  1  0.27695774  0.76986992  0.54917727  1
  C  C3  1  0.03652704  0.32336608  0.73696054  1
  N  N4  1  0.26495505  0.50556047  0.33227432  1
  N  N5  1  0.13394568  0.34647589  0.84004570  1
  N  N6  1  0.91792264  0.29913419  0.64938397  1
  N  N7  1  0.35704293  0.41519207  0.32311584  1
  N  N8  1  0.66284418  0.41800953  0.53074210  1
  N  N9  1  0.37120926  0.67514258  0.59780800  1
  N  N10  1  0.18384972  0.94934090  0.01524548  1
  N  N11  1  0.98551170  0.85991631  0.37787228  1
  H  H12  1  0.59808384  0.33633487  0.55786442  1
  H  H13  1  0.84365662  0.91310285  0.01569182  1
  H  H14  1  0.46096987  0.16045609  0.45781986  1
  H  H15  1  0.59792175  0.50168067  0.47549865  1
  H  H16  1  0.56675049  0.83703486  0.22328344  1
  H  H17  1  0.25426791  0.34912675  0.84494654  1
  H  H18  1  0.09766256  0.01047232  0.05629633  1
  H  H19  1  0.62324100  0.19479118  0.86865464  1
  H  H20  1  0.88468105  0.17154082  0.30871917  1
  H  H21  1  0.97136639  0.23984674  0.02900719  1
  H  H22  1  0.52967457  0.11353658  0.49600998  1
  H  H23  1  0.85885343  0.12912580  0.66217666  1
  H  H24  1  0.41211960  0.61642892  0.69314721  1
  H  H25  1  0.25914555  0.90047653  0.31443399  1
  H  H26  1  0.95798008  0.55055464  0.24019805  1
  H  H27  1  0.16857602  0.68275847  0.82949563  1
  H  H28  1  0.08691076  0.71212680  0.79663529  1
  H  H29  1  0.14979621  0.85280585  0.97169778  1
  H  H30  1  0.86747344  0.84019280  0.37688872  1
  H  H31  1  0.85723992  0.93164924  0.09474302  1
  B  B32  1  0.33457927  0.99548978  0.01740867  1
  B  B33  1  0.82592081  0.41346209  0.56041708  1
  Re  Re34  1  0.15727946  0.93827592  0.44629302  1
  Re  Re35  1  0.72770336  0.47255913  0.97683417  1
  Cl  Cl36  1  0.38378668  0.17020341  0.07995404  1
  Cl  Cl37  1  0.59175991  0.82497936  0.36319041  1
  Cl  Cl38  1  0.73216648  0.14954074  0.28366607  1
  Cl  Cl39  1  0.11773031  0.17538364  0.33432116  1
  Cl  Cl40  1  0.25719087  0.06491169  0.65225218  1
  Cl  Cl41  1  0.81516555  0.99298118  0.68413895  1
  Cl  Cl42  1  0.48788471  0.87649717  0.96299109  1
  Cl  Cl43  1  0.63696863  0.52646839  0.18536861  1
  Cl  Cl44  1  0.98289644  0.55181508  0.10433229  1
  Cl  Cl45  1  0.93260155  0.55489554  0.49389852  1
  Cl  Cl46  1  0.45625319  0.48717496  0.86776588  1
  Cl  Cl47  1  0.76167089  0.64662274  0.81225802  1
