# generated using pymatgen
data_HfBH10C2(N2Cl3)2
_symmetry_space_group_name_H-M   'P 1'
_cell_length_a   7.34157253
_cell_length_b   11.58940650
_cell_length_c   8.26577499
_cell_angle_alpha   89.64697288
_cell_angle_beta   88.28047616
_cell_angle_gamma   88.81630735
_symmetry_Int_Tables_number   1
_chemical_formula_structural   HfBH10C2(N2Cl3)2
_chemical_formula_sum   'Hf2 B2 H20 C4 N8 Cl12'
_cell_volume   702.81155675
_cell_formula_units_Z   2
loop_
 _symmetry_equiv_pos_site_id
 _symmetry_equiv_pos_as_xyz
  1  'x, y, z'
loop_
 _atom_site_type_symbol
 _atom_site_label
 _atom_site_symmetry_multiplicity
 _atom_site_fract_x
 _atom_site_fract_y
 _atom_site_fract_z
 _atom_site_occupancy
  C  C0  1  0.42669857  0.28169806  0.43686130  1
  C  C1  1  0.04628318  0.22543661  0.04124233  1
  C  C2  1  0.36945737  0.82338228  0.52190300  1
  C  C3  1  0.16105650  0.68701755  0.88549265  1
  N  N4  1  0.55362805  0.24393371  0.53948173  1
  N  N5  1  0.34442980  0.22194636  0.32982836  1
  N  N6  1  0.21142679  0.26734920  0.03553891  1
  N  N7  1  0.96501866  0.19701584  0.17893915  1
  N  N8  1  0.50090226  0.74796617  0.55902803  1
  N  N9  1  0.21208742  0.79929224  0.46160794  1
  N  N10  1  0.09032824  0.78161474  0.93567827  1
  N  N11  1  0.90687183  0.78009724  0.24397512  1
  H  H12  1  0.38848773  0.37312849  0.44928423  1
  H  H13  1  0.61903228  0.30157928  0.60763884  1
  H  H14  1  0.61421932  0.16463257  0.52217924  1
  H  H15  1  0.46027953  0.42154803  0.10525639  1
  H  H16  1  0.38856162  0.13716807  0.32739352  1
  H  H17  1  0.97435338  0.21197978  0.92963359  1
  H  H18  1  0.26205285  0.30425619  0.93231958  1
  H  H19  1  0.28069248  0.26950366  0.14836781  1
  H  H20  1  0.84754581  0.15102153  0.18511053  1
  H  H21  1  0.03367829  0.20638692  0.28414759  1
  H  H22  1  0.39977370  0.91361262  0.54500486  1
  H  H23  1  0.61448468  0.77716210  0.61338982  1
  H  H24  1  0.48823556  0.66108093  0.54735669  1
  H  H25  1  0.10591163  0.01106901  0.35871226  1
  H  H26  1  0.19925328  0.71311629  0.43501501  1
  H  H27  1  0.17294655  0.61442098  0.97043529  1
  H  H28  1  0.21072183  0.67130487  0.76079949  1
  H  H29  1  0.08113140  0.84349115  0.84627439  1
  H  H30  1  0.80858439  0.71937584  0.24094108  1
  H  H31  1  0.97398752  0.78478617  0.12988299  1
  B  B32  1  0.39991727  0.06611138  0.90956702  1
  B  B33  1  0.94732165  0.49320493  0.42652904  1
  Hf  Hf34  1  0.95228255  0.89239706  0.41354078  1
  Hf  Hf35  1  0.62041981  0.51593373  0.00243296  1
  Cl  Cl36  1  0.60510888  0.14072793  0.91226247  1
  Cl  Cl37  1  0.33440558  0.97904087  0.07015569  1
  Cl  Cl38  1  0.69576665  0.02079000  0.33561551  1
  Cl  Cl39  1  0.96863560  0.35312884  0.52629949  1
  Cl  Cl40  1  0.26431101  0.07589074  0.73789224  1
  Cl  Cl41  1  0.82582670  0.90172702  0.68829428  1
  Cl  Cl42  1  0.56106257  0.71292090  0.02455648  1
  Cl  Cl43  1  0.71168307  0.48469725  0.30103159  1
  Cl  Cl44  1  0.13779909  0.52140225  0.28842564  1
  Cl  Cl45  1  0.89854776  0.60962612  0.57070458  1
  Cl  Cl46  1  0.45662094  0.47373757  0.76810183  1
  Cl  Cl47  1  0.90818774  0.45135192  0.91597518  1
