# generated using pymatgen
data_BaBH10C2(N2Cl3)2
_symmetry_space_group_name_H-M   'P 1'
_cell_length_a   7.91458392
_cell_length_b   10.74817962
_cell_length_c   7.97722231
_cell_angle_alpha   88.83186223
_cell_angle_beta   88.83542052
_cell_angle_gamma   92.39780058
_symmetry_Int_Tables_number   1
_chemical_formula_structural   BaBH10C2(N2Cl3)2
_chemical_formula_sum   'Ba2 B2 H20 C4 N8 Cl12'
_cell_volume   677.71390359
_cell_formula_units_Z   2
loop_
 _symmetry_equiv_pos_site_id
 _symmetry_equiv_pos_as_xyz
  1  'x, y, z'
loop_
 _atom_site_type_symbol
 _atom_site_label
 _atom_site_symmetry_multiplicity
 _atom_site_fract_x
 _atom_site_fract_y
 _atom_site_fract_z
 _atom_site_occupancy
  C  C0  1  0.46672460  0.28583926  0.51581459  1
  C  C1  1  0.96265660  0.23545548  0.98880594  1
  C  C2  1  0.53812359  0.76560284  0.49311107  1
  C  C3  1  0.98980364  0.69167757  0.99446535  1
  N  N4  1  0.58504868  0.24265760  0.60875419  1
  N  N5  1  0.40256106  0.22854357  0.38256236  1
  N  N6  1  0.09535095  0.29465570  0.92013460  1
  N  N7  1  0.89922704  0.26075092  0.13745468  1
  N  N8  1  0.66134527  0.73304084  0.58938802  1
  N  N9  1  0.42162040  0.68800681  0.43141608  1
  N  N10  1  0.04453513  0.71690453  0.84213247  1
  N  N11  1  0.87639933  0.75764030  0.07728420  1
  H  H12  1  0.41174602  0.37314851  0.55331823  1
  H  H13  1  0.63367612  0.29864606  0.70133119  1
  H  H14  1  0.64491009  0.16301206  0.57767815  1
  H  H15  1  0.33667987  0.28661981  0.30463486  1
  H  H16  1  0.47488764  0.16230884  0.32732658  1
  H  H17  1  0.90312960  0.15819889  0.92092130  1
  H  H18  1  0.12285467  0.28316595  0.79644601  1
  H  H19  1  0.15556017  0.36782558  0.97864893  1
  H  H20  1  0.80167877  0.20519159  0.18843761  1
  H  H21  1  0.94121175  0.33655094  0.20263866  1
  H  H22  1  0.53681049  0.86422374  0.45666295  1
  H  H23  1  0.74640011  0.80185741  0.62621134  1
  H  H24  1  0.68304917  0.64203505  0.62091110  1
  H  H25  1  0.30874404  0.72571528  0.39501321  1
  H  H26  1  0.40260463  0.60221489  0.48988351  1
  H  H27  1  0.03757523  0.61032814  0.06048865  1
  H  H28  1  0.12163986  0.65502079  0.78269548  1
  H  H29  1  0.00734942  0.79524971  0.77865064  1
  H  H30  1  0.88880184  0.75503699  0.20638526  1
  H  H31  1  0.84627900  0.84192150  0.02507257  1
  B  B32  1  0.37578441  0.00448021  0.95558453  1
  B  B33  1  0.93722459  0.49465515  0.53928083  1
  Ba  Ba34  1  0.06391406  0.04560140  0.45530897  1
  Ba  Ba35  1  0.52764411  0.58428050  0.05422725  1
  Cl  Cl36  1  0.48321290  0.15575648  0.98788247  1
  Cl  Cl37  1  0.16739362  0.99358908  0.06781856  1
  Cl  Cl38  1  0.70793531  0.04105690  0.33815414  1
  Cl  Cl39  1  0.98915326  0.31138242  0.53992340  1
  Cl  Cl40  1  0.34572372  0.97878643  0.72591142  1
  Cl  Cl41  1  0.85239078  0.97074181  0.75819749  1
  Cl  Cl42  1  0.50309440  0.87450014  0.03800888  1
  Cl  Cl43  1  0.73918117  0.48827469  0.35094350  1
  Cl  Cl44  1  0.22634271  0.46103203  0.21917594  1
  Cl  Cl45  1  0.05774899  0.77825416  0.42015825  1
  Cl  Cl46  1  0.31974129  0.52543622  0.75627024  1
  Cl  Cl47  1  0.75454924  0.46318824  0.81857914  1
