# generated using pymatgen
data_BSbH10C2(N2Cl3)2
_symmetry_space_group_name_H-M   'P 1'
_cell_length_a   7.73112090
_cell_length_b   10.89261034
_cell_length_c   8.04595675
_cell_angle_alpha   90.37675849
_cell_angle_beta   89.98074323
_cell_angle_gamma   89.93351896
_symmetry_Int_Tables_number   1
_chemical_formula_structural   BSbH10C2(N2Cl3)2
_chemical_formula_sum   'B2 Sb2 H20 C4 N8 Cl12'
_cell_volume   677.55166850
_cell_formula_units_Z   2
loop_
 _symmetry_equiv_pos_site_id
 _symmetry_equiv_pos_as_xyz
  1  'x, y, z'
loop_
 _atom_site_type_symbol
 _atom_site_label
 _atom_site_symmetry_multiplicity
 _atom_site_fract_x
 _atom_site_fract_y
 _atom_site_fract_z
 _atom_site_occupancy
  C  C0  1  0.49632978  0.29720088  0.50507475  1
  C  C1  1  0.99603392  0.20245183  0.99463437  1
  C  C2  1  0.50545994  0.78761405  0.50874827  1
  C  C3  1  0.00605012  0.71253363  0.99136903  1
  N  N4  1  0.60003872  0.24093729  0.60874048  1
  N  N5  1  0.39311988  0.24487007  0.39624366  1
  N  N6  1  0.09882320  0.25854487  0.89007275  1
  N  N7  1  0.89355269  0.25496648  0.10419867  1
  N  N8  1  0.61276128  0.73373300  0.61117205  1
  N  N9  1  0.39642780  0.73353006  0.40661086  1
  N  N10  1  0.11199510  0.76644808  0.88776554  1
  N  N11  1  0.89838470  0.76654744  0.09513365  1
  H  H12  1  0.49590505  0.39714880  0.51063885  1
  H  H13  1  0.67558488  0.29398249  0.68528365  1
  H  H14  1  0.61127681  0.14777322  0.61783255  1
  H  H15  1  0.31590685  0.29858307  0.32398135  1
  H  H16  1  0.38001613  0.15198465  0.38453510  1
  H  H17  1  0.99579432  0.10250581  0.98926330  1
  H  H18  1  0.17404560  0.20533793  0.81320707  1
  H  H19  1  0.10985220  0.35168765  0.88077172  1
  H  H20  1  0.81672758  0.20137604  0.17688793  1
  H  H21  1  0.88008636  0.34786131  0.11547368  1
  H  H22  1  0.50739541  0.88761063  0.50753711  1
  H  H23  1  0.69313271  0.78923337  0.67956727  1
  H  H24  1  0.62290524  0.64102609  0.62619223  1
  H  H25  1  0.31595497  0.78730348  0.33755458  1
  H  H26  1  0.37622564  0.64125648  0.40239233  1
  H  H27  1  0.00802377  0.61252715  0.99209409  1
  H  H28  1  0.19165254  0.71094949  0.81840502  1
  H  H29  1  0.12197556  0.85916009  0.87294491  1
  H  H30  1  0.81931471  0.71267124  0.16542458  1
  H  H31  1  0.87839617  0.85885931  0.10039417  1
  B  B32  1  0.48739779  0.00134016  0.09567329  1
  B  B33  1  0.98753247  0.49912008  0.40393730  1
  Sb  Sb34  1  0.00391296  0.99897895  0.49581795  1
  Sb  Sb35  1  0.50445928  0.50184659  0.00451671  1
  Cl  Cl36  1  0.49515050  0.14582243  0.98513526  1
  Cl  Cl37  1  0.26836039  0.98842327  0.20612851  1
  Cl  Cl38  1  0.66431577  0.01083630  0.26256794  1
  Cl  Cl39  1  0.99514277  0.35456879  0.51435626  1
  Cl  Cl40  1  0.25951273  0.02301249  0.68046415  1
  Cl  Cl41  1  0.80881933  0.98123089  0.74094144  1
  Cl  Cl42  1  0.51211374  0.85953471  0.97896331  1
  Cl  Cl43  1  0.76844306  0.51264156  0.29391698  1
  Cl  Cl44  1  0.16428482  0.48926206  0.23704703  1
  Cl  Cl45  1  0.01230937  0.64072667  0.52112056  1
  Cl  Cl46  1  0.30899133  0.51804643  0.75943180  1
  Cl  Cl47  1  0.76012339  0.47645560  0.81994069  1
