# generated using pymatgen
data_InBH10C2(N2Cl3)2
_symmetry_space_group_name_H-M   'P 1'
_cell_length_a   8.40229545
_cell_length_b   9.58459969
_cell_length_c   8.42596451
_cell_angle_alpha   88.85287842
_cell_angle_beta   90.16555809
_cell_angle_gamma   92.63022999
_symmetry_Int_Tables_number   1
_chemical_formula_structural   InBH10C2(N2Cl3)2
_chemical_formula_sum   'In2 B2 H20 C4 N8 Cl12'
_cell_volume   677.71311157
_cell_formula_units_Z   2
loop_
 _symmetry_equiv_pos_site_id
 _symmetry_equiv_pos_as_xyz
  1  'x, y, z'
loop_
 _atom_site_type_symbol
 _atom_site_label
 _atom_site_symmetry_multiplicity
 _atom_site_fract_x
 _atom_site_fract_y
 _atom_site_fract_z
 _atom_site_occupancy
  C  C0  1  0.50373465  0.31432126  0.52659310  1
  C  C1  1  0.01532411  0.19390681  0.00128235  1
  C  C2  1  0.55980533  0.72799481  0.49641432  1
  C  C3  1  0.99946830  0.71468603  0.00049125  1
  N  N4  1  0.60253044  0.24723343  0.61766037  1
  N  N5  1  0.39700025  0.25708625  0.43080421  1
  N  N6  1  0.10696104  0.25874511  0.89478617  1
  N  N7  1  0.88277366  0.24134331  0.05633634  1
  N  N8  1  0.55080473  0.81134144  0.61622650  1
  N  N9  1  0.43952226  0.69300698  0.40206420  1
  N  N10  1  0.09717683  0.75921792  0.88840167  1
  N  N11  1  0.88811506  0.78807019  0.06525436  1
  H  H12  1  0.51122823  0.42784465  0.53196064  1
  H  H13  1  0.67781848  0.30578915  0.68966074  1
  H  H14  1  0.60284610  0.14113965  0.62886438  1
  H  H15  1  0.31944970  0.31908905  0.37189601  1
  H  H16  1  0.37392916  0.15149221  0.42990219  1
  H  H17  1  0.05672427  0.09578820  0.05039725  1
  H  H18  1  0.20341239  0.21024665  0.85264087  1
  H  H19  1  0.08028603  0.35119060  0.84080740  1
  H  H20  1  0.81459322  0.18152749  0.13399523  1
  H  H21  1  0.83423854  0.32848159  0.00481715  1
  H  H22  1  0.44781622  0.86224495  0.64087038  1
  H  H23  1  0.65135346  0.84062593  0.68006643  1
  H  H24  1  0.67389516  0.68189202  0.47308000  1
  H  H25  1  0.32869927  0.73022284  0.41662089  1
  H  H26  1  0.45614509  0.63155049  0.30626557  1
  H  H27  1  0.01375560  0.60942551  0.04786812  1
  H  H28  1  0.17712298  0.69104068  0.84397645  1
  H  H29  1  0.09474404  0.85663758  0.83623271  1
  H  H30  1  0.81415000  0.73830202  0.14554520  1
  H  H31  1  0.84966898  0.87607334  0.00847990  1
  B  B32  1  0.47409955  0.00060437  0.11157984  1
  B  B33  1  0.99146142  0.48875693  0.40015162  1
  In  In34  1  0.98451678  0.00297105  0.47951833  1
  In  In35  1  0.49645492  0.50469872  0.01627080  1
  Cl  Cl36  1  0.48215525  0.15994703  0.98405360  1
  Cl  Cl37  1  0.27705405  0.97770262  0.21207186  1
  Cl  Cl38  1  0.63555744  0.01693842  0.26556972  1
  Cl  Cl39  1  0.99373360  0.33856101  0.53895322  1
  Cl  Cl40  1  0.25779245  0.00310522  0.66165368  1
  Cl  Cl41  1  0.82978834  0.99379496  0.76534464  1
  Cl  Cl42  1  0.50383578  0.84578966  0.99063877  1
  Cl  Cl43  1  0.79449235  0.49162941  0.29572430  1
  Cl  Cl44  1  0.15332758  0.46963365  0.24955451  1
  Cl  Cl45  1  0.02496649  0.65550257  0.50475701  1
  Cl  Cl46  1  0.31676759  0.52467942  0.76145345  1
  Cl  Cl47  1  0.75892219  0.48818979  0.83254706  1
