# generated using pymatgen
data_AgBH10C2(N2Cl3)2
_symmetry_space_group_name_H-M   'P 1'
_cell_length_a   7.89156121
_cell_length_b   9.98055090
_cell_length_c   8.17046011
_cell_angle_alpha   90.46475030
_cell_angle_beta   90.00034064
_cell_angle_gamma   90.00047221
_symmetry_Int_Tables_number   1
_chemical_formula_structural   AgBH10C2(N2Cl3)2
_chemical_formula_sum   'Ag2 B2 H20 C4 N8 Cl12'
_cell_volume   643.50165814
_cell_formula_units_Z   2
loop_
 _symmetry_equiv_pos_site_id
 _symmetry_equiv_pos_as_xyz
  1  'x, y, z'
loop_
 _atom_site_type_symbol
 _atom_site_label
 _atom_site_symmetry_multiplicity
 _atom_site_fract_x
 _atom_site_fract_y
 _atom_site_fract_z
 _atom_site_occupancy
  C  C0  1  0.51056082  0.29597527  0.52435740  1
  C  C1  1  0.01057524  0.20402765  0.97563592  1
  C  C2  1  0.51380085  0.79074102  0.49997138  1
  C  C3  1  0.01377176  0.70925962  1.00004657  1
  N  N4  1  0.60569927  0.23874082  0.63536590  1
  N  N5  1  0.41881264  0.23603886  0.41175479  1
  N  N6  1  0.10570045  0.26126902  0.86464934  1
  N  N7  1  0.91882054  0.26395478  0.08826332  1
  N  N8  1  0.59385427  0.74424323  0.62783952  1
  N  N9  1  0.39765708  0.72482713  0.41628066  1
  N  N10  1  0.09387546  0.75576351  0.87214944  1
  N  N11  1  0.89767072  0.77517450  0.08369566  1
  H  H12  1  0.50500403  0.40484806  0.52785195  1
  H  H13  1  0.67006244  0.30079794  0.71517033  1
  H  H14  1  0.62445286  0.13756914  0.64520964  1
  H  H15  1  0.35120267  0.29496159  0.33161407  1
  H  H16  1  0.40287158  0.13480702  0.41106705  1
  H  H17  1  0.00500746  0.09515556  0.97213107  1
  H  H18  1  0.17006955  0.19922296  0.78483305  1
  H  H19  1  0.12446028  0.36244791  0.85481435  1
  H  H20  1  0.85121881  0.20502164  0.16839463  1
  H  H21  1  0.90289803  0.36518400  0.08897420  1
  H  H22  1  0.55194482  0.88942030  0.45612312  1
  H  H23  1  0.67753683  0.80777951  0.68798312  1
  H  H24  1  0.56233651  0.65428806  0.67932965  1
  H  H25  1  0.34165205  0.76834271  0.31833972  1
  H  H26  1  0.35236623  0.63393641  0.45323331  1
  H  H27  1  0.05191384  0.61057236  0.04386330  1
  H  H28  1  0.17754760  0.69221141  0.81202406  1
  H  H29  1  0.06237917  0.84571092  0.82068306  1
  H  H30  1  0.84162924  0.73165891  0.18163923  1
  H  H31  1  0.85237574  0.86607958  0.04675708  1
  B  B32  1  0.40561535  0.98504187  0.06416689  1
  B  B33  1  0.90561133  0.51496586  0.43584399  1
  Ag  Ag34  1  0.98335301  0.01684765  0.51357812  1
  Ag  Ag35  1  0.48333740  0.48315433  0.98642771  1
  Cl  Cl36  1  0.48699862  0.13699947  0.00251053  1
  Cl  Cl37  1  0.22626846  0.98384864  0.19306404  1
  Cl  Cl38  1  0.76506791  0.03039337  0.30557919  1
  Cl  Cl39  1  0.98698931  0.36301105  0.49751441  1
  Cl  Cl40  1  0.25806215  0.01241941  0.65010265  1
  Cl  Cl41  1  0.80303883  0.97580575  0.78131267  1
  Cl  Cl42  1  0.49176777  0.83046761  0.01113504  1
  Cl  Cl43  1  0.72627131  0.51615490  0.30693715  1
  Cl  Cl44  1  0.26505206  0.46960190  0.19442345  1
  Cl  Cl45  1  0.99176070  0.66954306  0.48886965  1
  Cl  Cl46  1  0.30304426  0.52419057  0.71867681  1
  Cl  Cl47  1  0.75805204  0.48758614  0.84991654  1
