# generated using pymatgen
data_BH10RhC2(N2Cl3)2
_symmetry_space_group_name_H-M   'P 1'
_cell_length_a   7.52616995
_cell_length_b   10.80713331
_cell_length_c   7.48764977
_cell_angle_alpha   87.82913651
_cell_angle_beta   89.99640479
_cell_angle_gamma   90.02139274
_symmetry_Int_Tables_number   1
_chemical_formula_structural   BH10RhC2(N2Cl3)2
_chemical_formula_sum   'B2 H20 Rh2 C4 N8 Cl12'
_cell_volume   608.58076099
_cell_formula_units_Z   2
loop_
 _symmetry_equiv_pos_site_id
 _symmetry_equiv_pos_as_xyz
  1  'x, y, z'
loop_
 _atom_site_type_symbol
 _atom_site_label
 _atom_site_symmetry_multiplicity
 _atom_site_fract_x
 _atom_site_fract_y
 _atom_site_fract_z
 _atom_site_occupancy
  C  C0  1  0.50556718  0.29803093  0.53973904  1
  C  C1  1  0.00559289  0.20195781  0.96036148  1
  C  C2  1  0.51374558  0.78634727  0.51442559  1
  C  C3  1  0.01364481  0.71362847  0.98550200  1
  N  N4  1  0.60452768  0.24004546  0.66057326  1
  N  N5  1  0.39462506  0.24684787  0.42969681  1
  N  N6  1  0.10457158  0.25982352  0.83938401  1
  N  N7  1  0.89491617  0.25327261  0.07051426  1
  N  N8  1  0.62140667  0.74611396  0.64114486  1
  N  N9  1  0.39092580  0.72001150  0.43755525  1
  N  N10  1  0.12152446  0.75384659  0.85893782  1
  N  N11  1  0.89078849  0.77997818  0.06223668  1
  H  H12  1  0.51412200  0.39866707  0.53230298  1
  H  H13  1  0.68143982  0.29428732  0.73901339  1
  H  H14  1  0.62091600  0.14589642  0.66949111  1
  H  H15  1  0.32880588  0.30472889  0.33903836  1
  H  H16  1  0.36509972  0.15449156  0.44094613  1
  H  H17  1  0.01384068  0.10131152  0.96786724  1
  H  H18  1  0.18126666  0.20550693  0.76091137  1
  H  H19  1  0.12121882  0.35395445  0.83040838  1
  H  H20  1  0.82900367  0.19545274  0.16125745  1
  H  H21  1  0.86564467  0.34565131  0.05923682  1
  H  H22  1  0.53059257  0.88257637  0.46792065  1
  H  H23  1  0.71270066  0.80885908  0.68584615  1
  H  H24  1  0.61978923  0.65767616  0.69662367  1
  H  H25  1  0.31666307  0.75976468  0.33758559  1
  H  H26  1  0.36963418  0.62830930  0.46772250  1
  H  H27  1  0.03028077  0.61738569  0.03201565  1
  H  H28  1  0.21277584  0.69109010  0.81431381  1
  H  H29  1  0.12010260  0.84228462  0.80345708  1
  H  H30  1  0.81630540  0.74021231  0.16207752  1
  H  H31  1  0.86964653  0.87167856  0.03200200  1
  B  B32  1  0.38080025  0.99253101  0.09567833  1
  B  B33  1  0.88079568  0.50759753  0.40436613  1
  Rh  Rh34  1  0.02331937  0.00767531  0.47530968  1
  Rh  Rh35  1  0.52326720  0.49229316  0.02464833  1
  Cl  Cl36  1  0.44388213  0.14401402  0.05068918  1
  Cl  Cl37  1  0.18953887  0.95167518  0.22968673  1
  Cl  Cl38  1  0.76901970  0.01994532  0.29863075  1
  Cl  Cl39  1  0.94386759  0.35615673  0.44947740  1
  Cl  Cl40  1  0.27283908  0.00998966  0.66332256  1
  Cl  Cl41  1  0.83904728  0.98923430  0.72381404  1
  Cl  Cl42  1  0.49084598  0.86423664  0.01603434  1
  Cl  Cl43  1  0.68956434  0.54829410  0.27028759  1
  Cl  Cl44  1  0.26892630  0.48011114  0.20133532  1
  Cl  Cl45  1  0.99081089  0.63597750  0.48391419  1
  Cl  Cl46  1  0.33902083  0.51075152  0.77615597  1
  Cl  Cl47  1  0.77278871  0.48989061  0.83664528  1
