# generated using pymatgen
data_ZrBH10C2(N2Cl3)2
_symmetry_space_group_name_H-M   'P 1'
_cell_length_a   7.29174728
_cell_length_b   9.76327769
_cell_length_c   9.76822087
_cell_angle_alpha   91.12809243
_cell_angle_beta   95.45239389
_cell_angle_gamma   91.00148600
_symmetry_Int_Tables_number   1
_chemical_formula_structural   ZrBH10C2(N2Cl3)2
_chemical_formula_sum   'Zr2 B2 H20 C4 N8 Cl12'
_cell_volume   692.00148364
_cell_formula_units_Z   2
loop_
 _symmetry_equiv_pos_site_id
 _symmetry_equiv_pos_as_xyz
  1  'x, y, z'
loop_
 _atom_site_type_symbol
 _atom_site_label
 _atom_site_symmetry_multiplicity
 _atom_site_fract_x
 _atom_site_fract_y
 _atom_site_fract_z
 _atom_site_occupancy
  C  C0  1  0.49419959  0.23931132  0.47556183  1
  C  C1  1  0.09052754  0.31234097  0.07352586  1
  C  C2  1  0.38127530  0.78990025  0.47813634  1
  C  C3  1  0.98186468  0.76901780  0.94448803  1
  N  N4  1  0.47074456  0.55597586  0.36535473  1
  N  N5  1  0.45965335  0.22657334  0.34571741  1
  N  N6  1  0.21007125  0.30231955  0.97914124  1
  N  N7  1  0.13408106  0.31720187  0.20614957  1
  N  N8  1  0.50228807  0.78354863  0.58822072  1
  N  N9  1  0.27531632  0.89890319  0.46010894  1
  N  N10  1  0.97505252  0.63938862  0.92869986  1
  N  N11  1  0.70246921  0.51925625  0.07949612  1
  H  H12  1  0.60098147  0.54153870  0.41385540  1
  H  H13  1  0.80176184  0.23412760  0.75994214  1
  H  H14  1  0.41320765  0.31043110  0.53275590  1
  H  H15  1  0.54642915  0.15963812  0.30267574  1
  H  H16  1  0.60295180  0.18309292  0.53474059  1
  H  H17  1  0.26724498  0.29523098  0.25129309  1
  H  H18  1  0.14211583  0.28436576  0.88344189  1
  H  H19  1  0.81424098  0.54890996  0.02441459  1
  H  H20  1  0.03351448  0.34289362  0.27103541  1
  H  H21  1  0.94380630  0.31515207  0.03860267  1
  H  H22  1  0.52752750  0.86573205  0.65410411  1
  H  H23  1  0.58031060  0.69932143  0.60560437  1
  H  H24  1  0.44300238  0.48272199  0.28913756  1
  H  H25  1  0.20470223  0.89120104  0.36364211  1
  H  H26  1  0.39470528  0.46292329  0.10767017  1
  H  H27  1  0.64084678  0.60843965  0.10568845  1
  H  H28  1  0.06679981  0.60408643  0.86260473  1
  H  H29  1  0.07543532  0.83682628  0.89434490  1
  H  H30  1  0.75417494  0.48111250  0.17524433  1
  H  H31  1  0.89125938  0.81910571  0.01301669  1
  B  B32  1  0.45326626  0.89259543  0.09378948  1
  B  B33  1  0.35485307  0.66453278  0.36998018  1
  Zr  Zr34  1  0.06593467  0.97180556  0.59021057  1
  Zr  Zr35  1  0.48693961  0.37924058  0.96143446  1
  Cl  Cl36  1  0.64539463  0.17453376  0.03463377  1
  Cl  Cl37  1  0.26427689  0.99281175  0.11834333  1
  Cl  Cl38  1  0.63160485  0.87366683  0.22448142  1
  Cl  Cl39  1  0.93438941  0.09256531  0.40217499  1
  Cl  Cl40  1  0.30665440  0.07967094  0.74177031  1
  Cl  Cl41  1  0.82423387  0.03424508  0.74572495  1
  Cl  Cl42  1  0.46606409  0.80104613  0.93967598  1
  Cl  Cl43  1  0.85764758  0.43930848  0.39131602  1
  Cl  Cl44  1  0.15897136  0.67283865  0.24813758  1
  Cl  Cl45  1  0.96720125  0.73898593  0.60003991  1
  Cl  Cl46  1  0.36793958  0.50056213  0.75818365  1
  Cl  Cl47  1  0.79208564  0.37106480  0.77179265  1
