# generated using pymatgen
data_YBH10C2(N2Cl3)2
_symmetry_space_group_name_H-M   'P 1'
_cell_length_a   7.80653412
_cell_length_b   10.57891400
_cell_length_c   7.89202552
_cell_angle_alpha   89.38829645
_cell_angle_beta   90.08528526
_cell_angle_gamma   89.77626230
_symmetry_Int_Tables_number   1
_chemical_formula_structural   YBH10C2(N2Cl3)2
_chemical_formula_sum   'Y2 B2 H20 C4 N8 Cl12'
_cell_volume   651.71731376
_cell_formula_units_Z   2
loop_
 _symmetry_equiv_pos_site_id
 _symmetry_equiv_pos_as_xyz
  1  'x, y, z'
loop_
 _atom_site_type_symbol
 _atom_site_label
 _atom_site_symmetry_multiplicity
 _atom_site_fract_x
 _atom_site_fract_y
 _atom_site_fract_z
 _atom_site_occupancy
  C  C0  1  0.49645569  0.29241547  0.51208584  1
  C  C1  1  1.00026889  0.20762800  0.98634619  1
  C  C2  1  0.50890193  0.78743244  0.50888062  1
  C  C3  1  0.00803894  0.71213561  0.99168320  1
  N  N4  1  0.59924343  0.23759236  0.62188819  1
  N  N5  1  0.40238756  0.23479941  0.39981469  1
  N  N6  1  0.10388519  0.26289491  0.87863032  1
  N  N7  1  0.90381611  0.26477120  0.09727259  1
  N  N8  1  0.61209290  0.73713292  0.62205867  1
  N  N9  1  0.39806859  0.72592067  0.41668458  1
  N  N10  1  0.10837815  0.76338769  0.87751877  1
  N  N11  1  0.89750780  0.77260501  0.08592046  1
  H  H12  1  0.48696931  0.39504158  0.51522081  1
  H  H13  1  0.66817517  0.29290570  0.70251282  1
  H  H14  1  0.60860365  0.14187450  0.63827909  1
  H  H15  1  0.32523157  0.28792611  0.32163844  1
  H  H16  1  0.40775543  0.13966674  0.38283784  1
  H  H17  1  0.99227697  0.10501660  0.98261783  1
  H  H18  1  0.17596811  0.20766594  0.80026357  1
  H  H19  1  0.11337688  0.35869226  0.86386024  1
  H  H20  1  0.82376481  0.21181575  0.17194358  1
  H  H21  1  0.90533921  0.36012785  0.11276944  1
  H  H22  1  0.51739690  0.88928696  0.48850558  1
  H  H23  1  0.68941723  0.79602260  0.68971435  1
  H  H24  1  0.61975379  0.64257613  0.64897099  1
  H  H25  1  0.32411366  0.77410941  0.33153669  1
  H  H26  1  0.37185306  0.63197639  0.43033774  1
  H  H27  1  0.01893731  0.61025752  0.01113058  1
  H  H28  1  0.18531196  0.70504869  0.80802372  1
  H  H29  1  0.11317529  0.85798139  0.85104938  1
  H  H30  1  0.82767622  0.72380400  0.17321317  1
  H  H31  1  0.86973356  0.86660018  0.07416608  1
  B  B32  1  0.43554279  0.99314285  0.03360487  1
  B  B33  1  0.93678711  0.49517910  0.46660943  1
  Y  Y34  1  0.97915154  0.00961994  0.50846848  1
  Y  Y35  1  0.48220235  0.49318514  -0.00581677  1
  Cl  Cl36  1  0.50060282  0.25052765  0.01625834  1
  Cl  Cl37  1  0.24653189  0.98814176  0.18829926  1
  Cl  Cl38  1  0.73232723  0.02011055  0.28319569  1
  Cl  Cl39  1  -0.00316653  0.25481272  0.48290790  1
  Cl  Cl40  1  0.26549949  0.01657522  0.68384224  1
  Cl  Cl41  1  0.79091850  0.98700369  0.77079681  1
  Cl  Cl42  1  0.50573456  0.73311379  0.02934649  1
  Cl  Cl43  1  0.74547821  0.50720118  0.31012453  1
  Cl  Cl44  1  0.23303442  0.48217901  0.21692586  1
  Cl  Cl45  1  0.00714144  0.77197067  0.47168461  1
  Cl  Cl46  1  0.29205018  0.51494965  0.73151504  1
  Cl  Cl47  1  0.76630804  0.48523808  0.81496589  1
