# generated using pymatgen
data_SrBH10C2(N2Cl3)2
_symmetry_space_group_name_H-M   'P 1'
_cell_length_a   7.86806375
_cell_length_b   10.34795019
_cell_length_c   8.45421770
_cell_angle_alpha   86.40050904
_cell_angle_beta   90.02333437
_cell_angle_gamma   90.38088038
_symmetry_Int_Tables_number   1
_chemical_formula_structural   SrBH10C2(N2Cl3)2
_chemical_formula_sum   'Sr2 B2 H20 C4 N8 Cl12'
_cell_volume   686.95524780
_cell_formula_units_Z   2
loop_
 _symmetry_equiv_pos_site_id
 _symmetry_equiv_pos_as_xyz
  1  'x, y, z'
loop_
 _atom_site_type_symbol
 _atom_site_label
 _atom_site_symmetry_multiplicity
 _atom_site_fract_x
 _atom_site_fract_y
 _atom_site_fract_z
 _atom_site_occupancy
  C  C0  1  0.51130472  0.30846498  0.51657502  1
  C  C1  1  0.01395269  0.18157789  0.97958985  1
  C  C2  1  0.50846850  0.78914188  0.52906520  1
  C  C3  1  0.00333544  0.72409106  0.94235737  1
  N  N4  1  0.59057070  0.25730512  0.64093941  1
  N  N5  1  0.45302442  0.24748379  0.39613575  1
  N  N6  1  0.09308976  0.24491263  0.86183803  1
  N  N7  1  0.91759337  0.23212436  0.08609300  1
  N  N8  1  0.60473986  0.75142978  0.65127100  1
  N  N9  1  0.41574747  0.71216383  0.44573589  1
  N  N10  1  0.03532681  0.74918188  0.79218332  1
  N  N11  1  0.90292906  0.79572183  0.02968563  1
  H  H12  1  0.49060709  0.41245547  0.51320956  1
  H  H13  1  0.63554955  0.31797193  0.72343467  1
  H  H14  1  0.61192283  0.15967858  0.66176072  1
  H  H15  1  0.38517848  0.29897561  0.31011684  1
  H  H16  1  0.46486315  0.14996331  0.38960242  1
  H  H17  1  0.03014891  0.07693075  0.99044674  1
  H  H18  1  0.17231557  0.19325696  0.79165786  1
  H  H19  1  0.09357313  0.34354243  0.84441182  1
  H  H20  1  0.85921870  0.17111495  0.17162429  1
  H  H21  1  0.89268855  0.32873161  0.08006604  1
  H  H22  1  0.50731690  0.89263225  0.49453900  1
  H  H23  1  0.66289129  0.82444008  0.71131026  1
  H  H24  1  0.63955591  0.65671342  0.67823527  1
  H  H25  1  0.34830958  0.75382161  0.35265920  1
  H  H26  1  0.38588388  0.61930473  0.48662567  1
  H  H27  1  0.05561986  0.63823162  0.00865877  1
  H  H28  1  0.10681734  0.67430224  0.75329039  1
  H  H29  1  0.23798404  0.94989661  0.96131654  1
  H  H30  1  0.89711324  0.78043692  0.14917571  1
  H  H31  1  0.84579813  0.87710500  0.97921470  1
  B  B32  1  0.33530704  0.96829695  0.06598433  1
  B  B33  1  0.90124634  0.49079485  0.39345654  1
  Sr  Sr34  1  -0.00115351  0.93378381  0.57346860  1
  Sr  Sr35  1  0.45677822  0.57979452  0.96691650  1
  Cl  Cl36  1  0.44134886  0.12533078  0.04986907  1
  Cl  Cl37  1  0.21488032  0.94735046  0.26243459  1
  Cl  Cl38  1  0.76725044  0.01168345  0.33571662  1
  Cl  Cl39  1  0.97047316  0.34828862  0.48549550  1
  Cl  Cl40  1  0.29350640  0.04740055  0.65407476  1
  Cl  Cl41  1  0.75530511  0.00658015  0.78371319  1
  Cl  Cl42  1  0.50115666  0.83366959  0.07165856  1
  Cl  Cl43  1  0.73155981  0.48962104  0.25768514  1
  Cl  Cl44  1  0.24858178  0.47067696  0.19514141  1
  Cl  Cl45  1  0.98115337  0.64301168  0.43562459  1
  Cl  Cl46  1  0.27974220  0.50651413  0.71028672  1
  Cl  Cl47  1  0.74944421  0.48416031  0.83575270  1
