# generated using pymatgen
data_CaZnH12C2(I3N)2
_symmetry_space_group_name_H-M   'P 1'
_cell_length_a   8.31830996
_cell_length_b   11.98306564
_cell_length_c   8.20721747
_cell_angle_alpha   90.84509094
_cell_angle_beta   90.00392440
_cell_angle_gamma   89.99525171
_symmetry_Int_Tables_number   1
_chemical_formula_structural   CaZnH12C2(I3N)2
_chemical_formula_sum   'Ca2 Zn2 H24 C4 I12 N4'
_cell_volume   817.99704322
_cell_formula_units_Z   2
loop_
 _symmetry_equiv_pos_site_id
 _symmetry_equiv_pos_as_xyz
  1  'x, y, z'
loop_
 _atom_site_type_symbol
 _atom_site_label
 _atom_site_symmetry_multiplicity
 _atom_site_fract_x
 _atom_site_fract_y
 _atom_site_fract_z
 _atom_site_occupancy
  C  C0  1  0.40134331  0.25086674  0.41568994  1
  C  C1  1  0.90222351  0.24929262  0.08504772  1
  C  C2  1  0.59865470  0.74913629  0.58432050  1
  C  C3  1  0.09777958  0.75071132  0.91496778  1
  N  N4  1  0.54427069  0.25063666  0.52303747  1
  N  N5  1  0.04461378  0.24938358  0.97699355  1
  N  N6  1  0.45572937  0.74936732  0.47696931  1
  N  N7  1  0.95539493  0.75061682  0.02302842  1
  H  H8  1  0.44146823  0.25046501  0.28864528  1
  H  H9  1  0.32956117  0.17654746  0.43966962  1
  H  H10  1  0.33169795  0.32638863  0.44137030  1
  H  H11  1  0.61361009  0.17983451  0.49986354  1
  H  H12  1  0.61529558  0.31997489  0.49980830  1
  H  H13  1  0.51378426  0.25221236  0.64662127  1
  H  H14  1  0.94299825  0.24975301  0.21187870  1
  H  H15  1  0.83237891  0.17379136  0.05985044  1
  H  H16  1  0.83038304  0.32364798  0.06135772  1
  H  H17  1  0.11566328  0.18000442  0.99994528  1
  H  H18  1  0.11412902  0.32014995  0.99982133  1
  H  H19  1  0.01354613  0.24780224  0.85356193  1
  H  H20  1  0.55852796  0.74953909  0.71136383  1
  H  H21  1  0.66829840  0.67361253  0.55864105  1
  H  H22  1  0.67043894  0.82345392  0.56034084  1
  H  H23  1  0.38639145  0.82017083  0.50014292  1
  H  H24  1  0.38470157  0.68003037  0.50019770  1
  H  H25  1  0.48621808  0.74779103  0.35338757  1
  H  H26  1  0.05700089  0.75025216  0.78813917  1
  H  H27  1  0.16762409  0.82621273  0.94016583  1
  H  H28  1  0.16962315  0.67635560  0.93865311  1
  H  H29  1  0.88434145  0.81999496  0.00008037  1
  H  H30  1  0.88588070  0.67984955  0.00020175  1
  H  H31  1  0.98646607  0.75219797  0.14645826  1
  Ca  Ca32  1  0.49999395  0.00000600  0.00001416  1
  Ca  Ca33  1  0.99998971  0.49999994  0.49999143  1
  Zn  Zn34  1  0.99999766  0.99999864  0.50002491  1
  Zn  Zn35  1  0.49999534  0.50001570  0.99997239  1
  I  I36  1  0.47960259  0.25736269  0.94846420  1
  I  I37  1  0.17804610  0.01252359  0.19704321  1
  I  I38  1  0.70285677  0.00778508  0.32422994  1
  I  I39  1  0.97895746  0.24265091  0.55191978  1
  I  I40  1  0.29714485  0.99221447  0.67578833  1
  I  I41  1  0.82195096  0.98747632  0.80298230  1
  I  I42  1  0.52040205  0.74264181  0.05154133  1
  I  I43  1  0.67793399  0.48751990  0.30294069  1
  I  I44  1  0.20279584  0.49220051  0.17575150  1
  I  I45  1  0.02104247  0.75735076  0.44810104  1
  I  I46  1  0.32206232  0.51248413  0.69705557  1
  I  I47  1  0.79721316  0.50780391  0.82425502  1
