# generated using pymatgen
data_BAsH10C2(N2Cl3)2
_symmetry_space_group_name_H-M   'P 1'
_cell_length_a   7.97898655
_cell_length_b   10.43053591
_cell_length_c   7.78896091
_cell_angle_alpha   92.03024780
_cell_angle_beta   89.19798059
_cell_angle_gamma   90.68545665
_symmetry_Int_Tables_number   1
_chemical_formula_structural   BAsH10C2(N2Cl3)2
_chemical_formula_sum   'B2 As2 H20 C4 N8 Cl12'
_cell_volume   647.72405268
_cell_formula_units_Z   2
loop_
 _symmetry_equiv_pos_site_id
 _symmetry_equiv_pos_as_xyz
  1  'x, y, z'
loop_
 _atom_site_type_symbol
 _atom_site_label
 _atom_site_symmetry_multiplicity
 _atom_site_fract_x
 _atom_site_fract_y
 _atom_site_fract_z
 _atom_site_occupancy
  C  C0  1  0.50119629  0.31272011  0.51713846  1
  C  C1  1  0.01045766  0.21541353  0.01623573  1
  C  C2  1  0.49247905  0.76264583  0.50383707  1
  C  C3  1  0.99821915  0.72068493  0.01173261  1
  N  N4  1  0.60835886  0.25815557  0.61705037  1
  N  N5  1  0.38967515  0.25268501  0.42099454  1
  N  N6  1  0.07965471  0.27954041  0.89156374  1
  N  N7  1  0.85901789  0.23335648  0.07979264  1
  N  N8  1  0.64400656  0.74308339  0.56019904  1
  N  N9  1  0.42753881  0.70995304  0.36360041  1
  N  N10  1  0.11492368  0.76861466  0.91257892  1
  N  N11  1  0.86446868  0.78168128  0.07026276  1
  H  H12  1  0.50508509  0.41717457  0.51533351  1
  H  H13  1  0.69056066  0.31639105  0.68349655  1
  H  H14  1  0.62041048  0.16124260  0.62675622  1
  H  H15  1  0.31015110  0.30518096  0.35047259  1
  H  H16  1  0.37074146  0.15570615  0.42165539  1
  H  H17  1  0.08627446  0.14158982  0.07271955  1
  H  H18  1  0.19632546  0.25469527  0.84878059  1
  H  H19  1  0.01924303  0.34990803  0.82988676  1
  H  H20  1  0.81518938  0.17615978  0.17451284  1
  H  H21  1  0.77635449  0.29800978  0.03357898  1
  H  H22  1  0.41323644  0.82912516  0.57951210  1
  H  H23  1  0.68520914  0.79537712  0.66486220  1
  H  H24  1  0.72660963  0.68184242  0.49927825  1
  H  H25  1  0.30827435  0.73392182  0.33453723  1
  H  H26  1  0.49183494  0.65542036  0.27085991  1
  H  H27  1  0.01524334  0.62285058  0.05251098  1
  H  H28  1  0.21459091  0.71164001  0.87827000  1
  H  H29  1  0.11237894  0.85881110  0.86504296  1
  H  H30  1  0.77131916  0.72876299  0.12568609  1
  H  H31  1  0.83118065  0.86809834  0.02415477  1
  B  B32  1  0.46119557  0.99683306  0.11474176  1
  B  B33  1  0.00960551  0.47811578  0.39998780  1
  As  As34  1  0.99605213  0.97032202  0.52680428  1
  As  As35  1  0.54746887  0.49014332  0.01595218  1
  Cl  Cl36  1  0.46706007  0.14817210  0.00097193  1
  Cl  Cl37  1  0.24926600  0.98005792  0.22179627  1
  Cl  Cl38  1  0.62866854  0.00595377  0.28441905  1
  Cl  Cl39  1  0.99751355  0.32170847  0.49873614  1
  Cl  Cl40  1  0.23363058  0.02040068  0.67997806  1
  Cl  Cl41  1  0.81265325  0.00371978  0.75605340  1
  Cl  Cl42  1  0.49535113  0.85378393  0.97366147  1
  Cl  Cl43  1  0.79760681  0.51056822  0.30089416  1
  Cl  Cl44  1  0.17297316  0.46923425  0.22327906  1
  Cl  Cl45  1  0.05561186  0.61521184  0.54405920  1
  Cl  Cl46  1  0.35318378  0.52725289  0.81135183  1
  Cl  Cl47  1  0.77196891  0.50814283  0.83052438  1
