# generated using pymatgen
data_GaBH10C2(N2Cl3)2
_symmetry_space_group_name_H-M   'P 1'
_cell_length_a   8.36143580
_cell_length_b   9.48923365
_cell_length_c   8.23612550
_cell_angle_alpha   90.01608045
_cell_angle_beta   90.16507111
_cell_angle_gamma   88.43143595
_symmetry_Int_Tables_number   1
_chemical_formula_structural   GaBH10C2(N2Cl3)2
_chemical_formula_sum   'Ga2 B2 H20 C4 N8 Cl12'
_cell_volume   653.23639954
_cell_formula_units_Z   2
loop_
 _symmetry_equiv_pos_site_id
 _symmetry_equiv_pos_as_xyz
  1  'x, y, z'
loop_
 _atom_site_type_symbol
 _atom_site_label
 _atom_site_symmetry_multiplicity
 _atom_site_fract_x
 _atom_site_fract_y
 _atom_site_fract_z
 _atom_site_occupancy
  C  C0  1  0.59841050  0.22602806  0.62372506  1
  C  C1  1  0.02104970  0.20676739  0.00879562  1
  C  C2  1  0.47413809  0.74795654  0.52809178  1
  C  C3  1  0.00948599  0.80667573  0.00750499  1
  N  N4  1  0.53686199  0.29510717  0.50346303  1
  N  N5  1  0.39958701  0.26590478  0.42357991  1
  N  N6  1  0.07396734  0.28463709  0.89060215  1
  N  N7  1  0.87643903  0.21965105  0.06993704  1
  N  N8  1  0.62493720  0.75862836  0.56733812  1
  N  N9  1  0.42062030  0.67962935  0.40035790  1
  N  N10  1  0.13012105  0.76042817  0.91914770  1
  N  N11  1  0.88261983  0.73580860  0.04525108  1
  H  H12  1  0.60274903  0.37388602  0.45082316  1
  H  H13  1  0.71497200  0.25719837  0.66629052  1
  H  H14  1  0.53266110  0.14160291  0.67983778  1
  H  H15  1  0.33801803  0.35526989  0.38726413  1
  H  H16  1  0.33111083  0.19707132  0.48908849  1
  H  H17  1  0.10477788  0.12897058  0.06153473  1
  H  H18  1  0.18599067  0.26674112  0.84561109  1
  H  H19  1  0.00277968  0.36044723  0.83627522  1
  H  H20  1  0.83726105  0.15117468  0.15557765  1
  H  H21  1  0.79524864  0.29022692  0.02010495  1
  H  H22  1  0.38548063  0.80259478  0.60426529  1
  H  H23  1  0.66095684  0.82483245  0.65867795  1
  H  H24  1  0.71497867  0.71178533  0.50139974  1
  H  H25  1  0.30061093  0.67742738  0.37965342  1
  H  H26  1  0.49382565  0.63779124  0.31274133  1
  H  H27  1  0.85486606  0.64182765  0.98941652  1
  H  H28  1  0.13899102  0.66281696  0.86587625  1
  H  H29  1  0.22073524  0.82727842  0.89524398  1
  H  H30  1  0.79262455  0.78753830  0.10566747  1
  H  H31  1  0.01844827  0.91177345  0.05858391  1
  B  B32  1  0.47932194  0.00138473  0.11937609  1
  B  B33  1  0.98020571  0.49684054  0.38679158  1
  Ga  Ga34  1  0.99508461  0.00521854  0.50212241  1
  Ga  Ga35  1  0.48472694  0.51146946  0.00230396  1
  Cl  Cl36  1  0.47496616  0.17206997  0.00963352  1
  Cl  Cl37  1  0.28866418  0.97979641  0.22885805  1
  Cl  Cl38  1  0.65046859  0.99477992  0.26711340  1
  Cl  Cl39  1  0.00339334  0.33962656  0.51620780  1
  Cl  Cl40  1  0.24547309  0.02792205  0.67058343  1
  Cl  Cl41  1  0.83326661  0.98617781  0.74695815  1
  Cl  Cl42  1  0.50867705  0.85253973  0.97275220  1
  Cl  Cl43  1  0.76972229  0.50106618  0.30029249  1
  Cl  Cl44  1  0.12724407  0.48724418  0.21911072  1
  Cl  Cl45  1  0.00972495  0.66053466  0.50538644  1
  Cl  Cl46  1  0.32758996  0.50253304  0.75700697  1
  Cl  Cl47  1  0.74616504  0.48538191  0.84387959  1
