# generated using pymatgen
data_CuBH10C2(N2Cl3)2
_symmetry_space_group_name_H-M   'P 1'
_cell_length_a   7.70105589
_cell_length_b   10.20116253
_cell_length_c   7.94731322
_cell_angle_alpha   90.14580100
_cell_angle_beta   89.99956802
_cell_angle_gamma   90.00488805
_symmetry_Int_Tables_number   1
_chemical_formula_structural   CuBH10C2(N2Cl3)2
_chemical_formula_sum   'Cu2 B2 H20 C4 N8 Cl12'
_cell_volume   624.33669914
_cell_formula_units_Z   2
loop_
 _symmetry_equiv_pos_site_id
 _symmetry_equiv_pos_as_xyz
  1  'x, y, z'
loop_
 _atom_site_type_symbol
 _atom_site_label
 _atom_site_symmetry_multiplicity
 _atom_site_fract_x
 _atom_site_fract_y
 _atom_site_fract_z
 _atom_site_occupancy
  C  C0  1  0.50474202  0.29480846  0.51758670  1
  C  C1  1  0.00475541  0.20519757  0.98244421  1
  C  C2  1  0.51250772  0.79284164  0.50449185  1
  C  C3  1  0.01245841  0.70715229  0.99552410  1
  N  N4  1  0.60235187  0.23864040  0.63180787  1
  N  N5  1  0.41127912  0.23614242  0.40176854  1
  N  N6  1  0.10238049  0.26135942  0.86820289  1
  N  N7  1  0.91132142  0.26387305  0.09824376  1
  N  N8  1  0.60296948  0.74117563  0.62695264  1
  N  N9  1  0.39849909  0.73038975  0.41065708  1
  N  N10  1  0.10295586  0.75880840  0.87305550  1
  N  N11  1  0.89846848  0.76961016  0.08931630  1
  H  H12  1  0.49810756  0.40129304  0.52094576  1
  H  H13  1  0.66512506  0.29938859  0.71554011  1
  H  H14  1  0.62576719  0.13992929  0.63940108  1
  H  H15  1  0.34639551  0.29457722  0.31679944  1
  H  H16  1  0.39022666  0.13753702  0.40391351  1
  H  H17  1  0.99810580  0.09871658  0.97909461  1
  H  H18  1  0.16514501  0.20059946  0.78447844  1
  H  H19  1  0.12582703  0.36006307  0.86059970  1
  H  H20  1  0.84642826  0.20544815  0.18322710  1
  H  H21  1  0.89029554  0.36248285  0.09609954  1
  H  H22  1  0.53831436  0.89547237  0.47546171  1
  H  H23  1  0.68679050  0.80321258  0.69068871  1
  H  H24  1  0.58238337  0.64806569  0.67085027  1
  H  H25  1  0.33264132  0.78047477  0.32062845  1
  H  H26  1  0.36696792  0.63402761  0.42700225  1
  H  H27  1  0.03825292  0.60452085  0.02455934  1
  H  H28  1  0.18677813  0.69676012  0.80932979  1
  H  H29  1  0.08240959  0.85190931  0.82914573  1
  H  H30  1  0.83258129  0.71953704  0.17935232  1
  H  H31  1  0.86695382  0.86597086  0.07295047  1
  B  B32  1  0.40844095  0.98570873  0.06418194  1
  B  B33  1  0.90842016  0.51431161  0.43581668  1
  Cu  Cu34  1  0.97475774  0.01183235  0.53443937  1
  Cu  Cu35  1  0.47473489  0.48817223  0.96556994  1
  Cl  Cl36  1  0.49353565  0.13556122  0.00560794  1
  Cl  Cl37  1  0.22260332  0.98358223  0.19385456  1
  Cl  Cl38  1  0.79219977  0.02359789  0.32256387  1
  Cl  Cl39  1  0.99348119  0.36446552  0.49442221  1
  Cl  Cl40  1  0.24004963  0.01609157  0.63952950  1
  Cl  Cl41  1  0.80615829  0.97710175  0.77463154  1
  Cl  Cl42  1  0.49726345  0.83509825  0.00996382  1
  Cl  Cl43  1  0.72259419  0.51641306  0.30612949  1
  Cl  Cl44  1  0.29214794  0.47639070  0.17742232  1
  Cl  Cl45  1  0.99725392  0.66493081  0.49001155  1
  Cl  Cl46  1  0.30616737  0.52290603  0.72535887  1
  Cl  Cl47  1  0.74002465  0.48391336  0.86048140  1
