# generated using pymatgen
data_TiBH10C2(N2Cl3)2
_symmetry_space_group_name_H-M   'P 1'
_cell_length_a   8.00775310
_cell_length_b   9.65287440
_cell_length_c   8.16489153
_cell_angle_alpha   86.12897578
_cell_angle_beta   94.87970603
_cell_angle_gamma   86.28138791
_symmetry_Int_Tables_number   1
_chemical_formula_structural   TiBH10C2(N2Cl3)2
_chemical_formula_sum   'Ti2 B2 H20 C4 N8 Cl12'
_cell_volume   625.82205240
_cell_formula_units_Z   2
loop_
 _symmetry_equiv_pos_site_id
 _symmetry_equiv_pos_as_xyz
  1  'x, y, z'
loop_
 _atom_site_type_symbol
 _atom_site_label
 _atom_site_symmetry_multiplicity
 _atom_site_fract_x
 _atom_site_fract_y
 _atom_site_fract_z
 _atom_site_occupancy
  C  C0  1  0.49038447  0.30998157  0.62329679  1
  C  C1  1  0.99570183  0.16197476  0.91624469  1
  C  C2  1  0.42290031  0.73259352  0.49767338  1
  C  C3  1  0.06965717  0.76600653  0.10965337  1
  N  N4  1  0.57894271  0.41931630  0.62849420  1
  N  N5  1  0.43505661  0.25154702  0.48910962  1
  N  N6  1  0.00677387  0.26150664  0.78287583  1
  N  N7  1  0.87152607  0.19144911  0.02197017  1
  N  N8  1  0.58322908  0.70975141  0.58649513  1
  N  N9  1  0.37317635  0.67997979  0.36483170  1
  N  N10  1  0.11377206  0.77750731  0.95831788  1
  N  N11  1  0.91411174  0.77571032  0.14973533  1
  H  H12  1  0.61832851  0.45083160  0.51563986  1
  H  H13  1  0.98860747  0.44256029  0.51972780  1
  H  H14  1  0.45564924  0.26083897  0.73857837  1
  H  H15  1  0.44089687  0.29827044  0.37444278  1
  H  H16  1  0.36105162  0.17010745  0.50359387  1
  H  H17  1  0.11650496  0.12365844  0.98032336  1
  H  H18  1  0.12113588  0.30203922  0.77423195  1
  H  H19  1  0.91520023  0.34240015  0.76959513  1
  H  H20  1  0.76682345  0.25012066  0.96963725  1
  H  H21  1  0.83752267  0.10633914  0.08852317  1
  H  H22  1  0.33513962  0.80022994  0.55780727  1
  H  H23  1  0.62227051  0.79764543  0.63979186  1
  H  H24  1  0.67555691  0.67260914  0.51754102  1
  H  H25  1  0.46563632  0.62045437  0.31632375  1
  H  H26  1  0.61798931  0.40247138  0.92747087  1
  H  H27  1  0.17094181  0.74688582  0.21062363  1
  H  H28  1  0.23888278  0.76480322  0.94168267  1
  H  H29  1  0.03105612  0.77623486  0.85572424  1
  H  H30  1  0.89659461  0.76494529  0.27205442  1
  H  H31  1  0.81064859  0.77843380  0.06630315  1
  B  B32  1  0.43941881  0.05976018  0.20395379  1
  B  B33  1  0.95599155  0.40257713  0.38583047  1
  Ti  Ti34  1  0.96886665  0.06605949  0.67775786  1
  Ti  Ti35  1  0.56861978  0.55511526  0.81666941  1
  Cl  Cl36  1  0.44610736  0.20561265  0.06825860  1
  Cl  Cl37  1  0.24760211  0.01503280  0.26862657  1
  Cl  Cl38  1  0.62555307  0.97002176  0.28732839  1
  Cl  Cl39  1  0.91492720  0.20234075  0.41858477  1
  Cl  Cl40  1  0.26189493  0.02798126  0.71861907  1
  Cl  Cl41  1  0.70563320  0.01877662  0.74716795  1
  Cl  Cl42  1  0.52678236  0.74466267  0.97613496  1
  Cl  Cl43  1  0.75163933  0.48780368  0.28685445  1
  Cl  Cl44  1  0.12046343  0.41851316  0.24739920  1
  Cl  Cl45  1  0.97681924  0.84574767  0.54915667  1
  Cl  Cl46  1  0.29357487  0.50679231  0.83344902  1
  Cl  Cl47  1  0.85445574  0.56406168  0.84599910  1
