# generated using pymatgen
data_ScBH10C2(N2Cl3)2
_symmetry_space_group_name_H-M   'P 1'
_cell_length_a   7.88584017
_cell_length_b   10.74103988
_cell_length_c   7.77328946
_cell_angle_alpha   90.53481325
_cell_angle_beta   90.00055637
_cell_angle_gamma   90.00165670
_symmetry_Int_Tables_number   1
_chemical_formula_structural   ScBH10C2(N2Cl3)2
_chemical_formula_sum   'Sc2 B2 H20 C4 N8 Cl12'
_cell_volume   658.38544245
_cell_formula_units_Z   2
loop_
 _symmetry_equiv_pos_site_id
 _symmetry_equiv_pos_as_xyz
  1  'x, y, z'
loop_
 _atom_site_type_symbol
 _atom_site_label
 _atom_site_symmetry_multiplicity
 _atom_site_fract_x
 _atom_site_fract_y
 _atom_site_fract_z
 _atom_site_occupancy
  C  C0  1  0.50078711  0.29190093  0.49868464  1
  C  C1  1  0.00088521  0.20806725  0.00131723  1
  C  C2  1  0.50304680  0.79238068  0.50647421  1
  C  C3  1  0.00296758  0.70767610  0.99361302  1
  N  N4  1  0.60477234  0.23775577  0.60599248  1
  N  N5  1  0.39884649  0.23547064  0.39009880  1
  N  N6  1  0.10486094  0.26224786  0.89399618  1
  N  N7  1  0.89893462  0.26447909  0.10985783  1
  N  N8  1  0.60991039  0.73742806  0.60999702  1
  N  N9  1  0.39014948  0.73687536  0.40874436  1
  N  N10  1  0.10976955  0.76262152  0.88996747  1
  N  N11  1  0.89013767  0.76317951  0.09139189  1
  H  H12  1  0.49875629  0.39336572  0.49986622  1
  H  H13  1  0.67747137  0.29277391  0.68436271  1
  H  H14  1  0.61579668  0.14364585  0.61827194  1
  H  H15  1  0.32409271  0.28900170  0.31323216  1
  H  H16  1  0.39143823  0.14120056  0.37551564  1
  H  H17  1  0.99894214  0.10662549  1.00013797  1
  H  H18  1  0.17757188  0.20723157  0.81564350  1
  H  H19  1  0.11582517  0.35634391  0.88168751  1
  H  H20  1  0.82417102  0.21094948  0.18673663  1
  H  H21  1  0.89145690  0.35877375  0.12442560  1
  H  H22  1  0.50909703  0.89354739  0.50083147  1
  H  H23  1  0.69290521  0.79341965  0.67639405  1
  H  H24  1  0.61325658  0.64362196  0.63159829  1
  H  H25  1  0.31203847  0.79219278  0.33705399  1
  H  H26  1  0.37860045  0.64247156  0.39585163  1
  H  H27  1  0.00906945  0.60649343  0.99926924  1
  H  H28  1  0.19269556  0.70665992  0.82356812  1
  H  H29  1  0.11303033  0.85641345  0.86837619  1
  H  H30  1  0.81206176  0.70784784  0.16317853  1
  H  H31  1  0.87856157  0.85759228  0.10430846  1
  B  B32  1  0.47979010  0.95459908  0.01076589  1
  B  B33  1  0.97990352  0.54528239  0.48890927  1
  Sc  Sc34  1  -0.00010946  0.02974986  0.49825145  1
  Sc  Sc35  1  0.49999125  0.47025207  0.00172880  1
  Cl  Cl36  1  0.50364441  0.25686448  0.99916744  1
  Cl  Cl37  1  0.18102792  0.96999909  0.25295203  1
  Cl  Cl38  1  0.75170736  0.00689302  0.30606348  1
  Cl  Cl39  1  0.00353035  0.24313286  0.50084231  1
  Cl  Cl40  1  0.24897354  0.00493485  0.68765803  1
  Cl  Cl41  1  0.81760709  0.97589485  0.74400077  1
  Cl  Cl42  1  0.49612841  0.79015520  0.00791904  1
  Cl  Cl43  1  0.68116148  0.52996593  0.24704382  1
  Cl  Cl44  1  0.25184237  0.49315838  0.19393933  1
  Cl  Cl45  1  0.99617522  0.70973138  0.49210409  1
  Cl  Cl46  1  0.31767901  0.52416056  0.75602696  1
  Cl  Cl47  1  0.74905979  0.49503398  0.81228708  1
