# generated using pymatgen
data_CaBH10C2(N2Cl3)2
_symmetry_space_group_name_H-M   'P 1'
_cell_length_a   7.95220432
_cell_length_b   9.86919164
_cell_length_c   8.56116540
_cell_angle_alpha   87.06197808
_cell_angle_beta   90.94785613
_cell_angle_gamma   90.33323219
_symmetry_Int_Tables_number   1
_chemical_formula_structural   CaBH10C2(N2Cl3)2
_chemical_formula_sum   'Ca2 B2 H20 C4 N8 Cl12'
_cell_volume   670.91262689
_cell_formula_units_Z   2
loop_
 _symmetry_equiv_pos_site_id
 _symmetry_equiv_pos_as_xyz
  1  'x, y, z'
loop_
 _atom_site_type_symbol
 _atom_site_label
 _atom_site_symmetry_multiplicity
 _atom_site_fract_x
 _atom_site_fract_y
 _atom_site_fract_z
 _atom_site_occupancy
  C  C0  1  0.50755437  0.30636574  0.50474465  1
  C  C1  1  0.00968237  0.18076501  0.99105836  1
  C  C2  1  0.50830030  0.79180482  0.53029036  1
  C  C3  1  0.00508037  0.71917273  0.94523899  1
  N  N4  1  0.58765457  0.25688062  0.62924681  1
  N  N5  1  0.45693544  0.23995315  0.38384894  1
  N  N6  1  0.08298246  0.24640277  0.87343478  1
  N  N7  1  0.90638862  0.23275657  0.08984868  1
  N  N8  1  0.60045474  0.74341678  0.64959013  1
  N  N9  1  0.41252194  0.72038398  0.43904043  1
  N  N10  1  0.03210775  0.74732206  0.79706514  1
  N  N11  1  0.91627754  0.79612332  0.03759321  1
  H  H12  1  0.47928124  0.41415451  0.50097583  1
  H  H13  1  0.62098727  0.32053984  0.71593472  1
  H  H14  1  0.61532431  0.15580862  0.65046525  1
  H  H15  1  0.39003721  0.29169739  0.29666864  1
  H  H16  1  0.47086909  0.13794241  0.37729137  1
  H  H17  1  0.03892545  0.07337687  0.00970760  1
  H  H18  1  0.16258956  0.19413593  0.80400397  1
  H  H19  1  0.07137274  0.34831927  0.84981082  1
  H  H20  1  0.85511780  0.16954107  0.17638611  1
  H  H21  1  0.86172042  0.32906548  0.07048245  1
  H  H22  1  0.51373297  0.90103235  0.50464949  1
  H  H23  1  0.66160193  0.81416571  0.71609156  1
  H  H24  1  0.61934610  0.64212936  0.67682122  1
  H  H25  1  0.35094465  0.77116392  0.34784235  1
  H  H26  1  0.38334469  0.62081791  0.46360633  1
  H  H27  1  0.05568693  0.62665881  0.00574393  1
  H  H28  1  0.10174574  0.66953625  0.75555208  1
  H  H29  1  0.25631251  0.95400828  0.95126948  1
  H  H30  1  0.90199063  0.77035860  0.15277850  1
  H  H31  1  0.85226162  0.87887741  0.99135479  1
  B  B32  1  0.35249470  0.97540191  0.05594510  1
  B  B33  1  0.90769810  0.49792636  0.40002128  1
  Ca  Ca34  1  0.98477510  0.92877356  0.59978431  1
  Ca  Ca35  1  0.44193919  0.57651845  0.96383685  1
  Cl  Cl36  1  0.46624399  0.13635567  0.02937802  1
  Cl  Cl37  1  0.24094617  0.96912283  0.24815625  1
  Cl  Cl38  1  0.79278174  0.99871152  0.35159741  1
  Cl  Cl39  1  0.97842289  0.34670373  0.48388801  1
  Cl  Cl40  1  0.26672021  0.05105207  0.64076675  1
  Cl  Cl41  1  0.75408992  0.00521316  0.78731160  1
  Cl  Cl42  1  0.51189497  0.82671138  0.06653930  1
  Cl  Cl43  1  0.73006388  0.50439074  0.27630779  1
  Cl  Cl44  1  0.26536754  0.47980144  0.19432106  1
  Cl  Cl45  1  0.00492501  0.65388797  0.43434806  1
  Cl  Cl46  1  0.28494093  0.50452347  0.71496050  1
  Cl  Cl47  1  0.72758167  0.48029119  0.86450552  1
