# generated using pymatgen
data_BPH10C2(N2Cl3)2
_symmetry_space_group_name_H-M   'P 1'
_cell_length_a   8.12559871
_cell_length_b   10.32457513
_cell_length_c   7.63034197
_cell_angle_alpha   92.55974556
_cell_angle_beta   88.62115186
_cell_angle_gamma   88.89295250
_symmetry_Int_Tables_number   1
_chemical_formula_structural   BPH10C2(N2Cl3)2
_chemical_formula_sum   'B2 P2 H20 C4 N8 Cl12'
_cell_volume   639.17775991
_cell_formula_units_Z   2
loop_
 _symmetry_equiv_pos_site_id
 _symmetry_equiv_pos_as_xyz
  1  'x, y, z'
loop_
 _atom_site_type_symbol
 _atom_site_label
 _atom_site_symmetry_multiplicity
 _atom_site_fract_x
 _atom_site_fract_y
 _atom_site_fract_z
 _atom_site_occupancy
  C  C0  1  0.50638355  0.31466203  0.51407743  1
  C  C1  1  0.00436560  0.22125965  0.02155577  1
  C  C2  1  0.49023083  0.76222444  0.49547012  1
  C  C3  1  0.99827345  0.72068501  0.01527464  1
  N  N4  1  0.61569156  0.26245159  0.61466652  1
  N  N5  1  0.38903928  0.25280463  0.43310634  1
  N  N6  1  0.07201467  0.28420450  0.89383428  1
  N  N7  1  0.85006799  0.23176662  0.07597444  1
  N  N8  1  0.64050300  0.74490932  0.55074436  1
  N  N9  1  0.42862215  0.70595498  0.35425795  1
  N  N10  1  0.12045478  0.76849526  0.92587675  1
  N  N11  1  0.86108406  0.78312518  0.06413472  1
  H  H12  1  0.51406626  0.41860902  0.49662723  1
  H  H13  1  0.70087393  0.32159013  0.67076536  1
  H  H14  1  0.62490833  0.16567027  0.63707264  1
  H  H15  1  0.31155738  0.30375573  0.35673788  1
  H  H16  1  0.36739721  0.15651814  0.44567942  1
  H  H17  1  0.08433072  0.15375202  0.08810336  1
  H  H18  1  0.19261102  0.26556491  0.86110254  1
  H  H19  1  0.00833478  0.34736309  0.82035822  1
  H  H20  1  0.81101240  0.17583669  0.17518810  1
  H  H21  1  0.76280662  0.29357953  0.02711711  1
  H  H22  1  0.40882997  0.82927047  0.57350809  1
  H  H23  1  0.67855883  0.79912496  0.65667653  1
  H  H24  1  0.72467995  0.68316063  0.48687579  1
  H  H25  1  0.31011397  0.72891175  0.32633429  1
  H  H26  1  0.49435336  0.64938120  0.25873730  1
  H  H27  1  0.01303744  0.62133122  0.05578108  1
  H  H28  1  0.22264244  0.71096837  0.89863036  1
  H  H29  1  0.11995573  0.85952198  0.87745741  1
  H  H30  1  0.76670448  0.73111192  0.11400503  1
  H  H31  1  0.83143361  0.87237499  0.02026790  1
  B  B32  1  0.45664965  0.00034182  0.10605066  1
  B  B33  1  0.01824910  0.47115779  0.40785202  1
  P  P34  1  0.98742653  0.96131689  0.53203496  1
  P  P35  1  0.56629411  0.48923253  0.01691561  1
  Cl  Cl36  1  0.45837258  0.15160920  0.98614678  1
  Cl  Cl37  1  0.25216980  0.98678023  0.22041939  1
  Cl  Cl38  1  0.62340860  0.00763521  0.27370925  1
  Cl  Cl39  1  0.99936106  0.30665614  0.48821834  1
  Cl  Cl40  1  0.20468589  0.01213008  0.67573484  1
  Cl  Cl41  1  0.81113991  0.00529503  0.74488989  1
  Cl  Cl42  1  0.49363077  0.85458618  0.95860648  1
  Cl  Cl43  1  0.81465001  0.51612204  0.30835535  1
  Cl  Cl44  1  0.18199822  0.46834732  0.22991722  1
  Cl  Cl45  1  0.06708591  0.59543538  0.57500180  1
  Cl  Cl46  1  0.37369341  0.51814048  0.83598007  1
  Cl  Cl47  1  0.76626446  0.51533645  0.83427315  1
