# generated using pymatgen
data_AlBH10C2(N2Cl3)2
_symmetry_space_group_name_H-M   'P 1'
_cell_length_a   8.30971602
_cell_length_b   9.36788031
_cell_length_c   9.12381723
_cell_angle_alpha   93.18605560
_cell_angle_beta   89.25720527
_cell_angle_gamma   85.01742251
_symmetry_Int_Tables_number   1
_chemical_formula_structural   AlBH10C2(N2Cl3)2
_chemical_formula_sum   'Al2 B2 H20 C4 N8 Cl12'
_cell_volume   706.34776169
_cell_formula_units_Z   2
loop_
 _symmetry_equiv_pos_site_id
 _symmetry_equiv_pos_as_xyz
  1  'x, y, z'
loop_
 _atom_site_type_symbol
 _atom_site_label
 _atom_site_symmetry_multiplicity
 _atom_site_fract_x
 _atom_site_fract_y
 _atom_site_fract_z
 _atom_site_occupancy
  C  C0  1  0.50265633  0.27415051  0.49933276  1
  C  C1  1  0.02982064  0.26110697  0.04369667  1
  C  C2  1  0.54026358  0.75997181  0.56066860  1
  C  C3  1  0.08101423  0.85702138  0.97582519  1
  N  N4  1  0.58740921  0.17040267  0.55932760  1
  N  N5  1  0.36353459  0.26055999  0.43244298  1
  N  N6  1  0.05769813  0.33263850  0.92845778  1
  N  N7  1  0.88555947  0.25259823  0.10249171  1
  N  N8  1  0.59992836  0.88275373  0.56982079  1
  N  N9  1  0.40141862  0.73428645  0.49270571  1
  N  N10  1  0.07869315  0.72839702  0.92382533  1
  N  N11  1  0.86758079  0.61824994  0.11716040  1
  H  H12  1  0.54957307  0.37946458  0.50186145  1
  H  H13  1  0.69072361  0.19584571  0.61002266  1
  H  H14  1  0.56538851  0.05728195  0.55716080  1
  H  H15  1  0.29596221  0.34941590  0.40149997  1
  H  H16  1  0.30160836  0.17322714  0.44820157  1
  H  H17  1  0.13252897  0.20419140  0.09510403  1
  H  H18  1  0.17237554  0.33798721  0.88869528  1
  H  H19  1  0.96523331  0.38715715  0.87468683  1
  H  H20  1  0.87479856  0.19799446  0.19511945  1
  H  H21  1  0.78352598  0.30454930  0.06227959  1
  H  H22  1  0.32652559  0.81891146  0.46311263  1
  H  H23  1  0.70827657  0.87215536  0.62212253  1
  H  H24  1  0.60305612  0.66473029  0.60541377  1
  H  H25  1  0.34431782  0.64828057  0.52138272  1
  H  H26  1  0.55792625  0.43580506  0.03543766  1
  H  H27  1  0.94309365  0.64708067  0.03250266  1
  H  H28  1  0.16208020  0.70173749  0.84026861  1
  H  H29  1  0.16248431  0.93306340  0.93596411  1
  H  H30  1  0.74794170  0.64912549  0.10663838  1
  H  H31  1  0.99673277  0.89509206  0.06636883  1
  B  B32  1  0.49026598  0.02134528  0.15975959  1
  B  B33  1  0.92671543  0.55907558  0.24223841  1
  Al  Al34  1  0.02613986  0.02191987  0.61593489  1
  Al  Al35  1  0.54459574  0.52241995  0.89063879  1
  Cl  Cl36  1  0.47960715  0.14500152  0.02361959  1
  Cl  Cl37  1  0.30997313  0.96268682  0.22693118  1
  Cl  Cl38  1  0.67446719  0.96459266  0.23400858  1
  Cl  Cl39  1  0.98274985  0.17558159  0.44824546  1
  Cl  Cl40  1  0.26082485  0.05186930  0.70020037  1
  Cl  Cl41  1  0.84894195  0.06097073  0.79045051  1
  Cl  Cl42  1  0.52958825  0.75127174  0.93209134  1
  Cl  Cl43  1  0.79852734  0.51192408  0.38392360  1
  Cl  Cl44  1  0.14164673  0.52327993  0.26003265  1
  Cl  Cl45  1  0.01303711  0.81099169  0.51790290  1
  Cl  Cl46  1  0.33782300  0.47278167  0.75636028  1
  Cl  Cl47  1  0.75538558  0.45911676  0.74816755  1
