# generated using pymatgen
data_BH10C2N5Cl6
_symmetry_space_group_name_H-M   'P 1'
_cell_length_a   7.32116946
_cell_length_b   10.85578897
_cell_length_c   7.75718367
_cell_angle_alpha   89.54289413
_cell_angle_beta   90.00236683
_cell_angle_gamma   90.00035271
_symmetry_Int_Tables_number   1
_chemical_formula_structural   BH10C2N5Cl6
_chemical_formula_sum   'B2 H20 C4 N10 Cl12'
_cell_volume   616.49861391
_cell_formula_units_Z   2
loop_
 _symmetry_equiv_pos_site_id
 _symmetry_equiv_pos_as_xyz
  1  'x, y, z'
loop_
 _atom_site_type_symbol
 _atom_site_label
 _atom_site_symmetry_multiplicity
 _atom_site_fract_x
 _atom_site_fract_y
 _atom_site_fract_z
 _atom_site_occupancy
  C  C0  1  0.49127319  0.29514089  0.49767259  1
  C  C1  1  0.99130361  0.20485922  0.00232063  1
  C  C2  1  0.50644591  0.78825554  0.50862993  1
  C  C3  1  0.00643496  0.71173796  0.99136811  1
  N  N4  1  0.60143568  0.23677743  0.60331794  1
  N  N5  1  0.38387610  0.24470705  0.38299168  1
  N  N6  1  0.10144985  0.26323472  0.89668761  1
  N  N7  1  0.88393296  0.25528430  0.11702815  1
  N  N8  1  0.61968433  0.73506669  0.61635396  1
  N  N9  1  0.39998636  0.73299495  0.39719511  1
  N  N10  1  0.11970143  0.76490949  0.88366565  1
  N  N11  1  0.89995873  0.76701921  0.10276250  1
  H  H12  1  0.48923610  0.39523111  0.50681312  1
  H  H13  1  0.67631854  0.28945663  0.68665419  1
  H  H14  1  0.62284624  0.14368480  0.60493219  1
  H  H15  1  0.30199247  0.30137120  0.31130921  1
  H  H16  1  0.36363925  0.15179785  0.37348791  1
  H  H17  1  0.98925189  0.10477180  0.99314734  1
  H  H18  1  0.17632376  0.21056350  0.81333592  1
  H  H19  1  0.12288537  0.35632613  0.89510755  1
  H  H20  1  0.80205423  0.19861212  0.18870075  1
  H  H21  1  0.86370492  0.34819017  0.12654822  1
  H  H22  1  0.50050516  0.88846327  0.51077243  1
  H  H23  1  0.70356151  0.79181772  0.68554433  1
  H  H24  1  0.63672730  0.64201954  0.62982455  1
  H  H25  1  0.31300596  0.78652628  0.32621652  1
  H  H26  1  0.38865643  0.63991526  0.38595387  1
  H  H27  1  0.00047255  0.61153128  0.98924933  1
  H  H28  1  0.20358681  0.70814571  0.81450610  1
  H  H29  1  0.13675440  0.85795272  0.87017426  1
  H  H30  1  0.81295369  0.71350727  0.17372970  1
  H  H31  1  0.88865350  0.86010370  0.11398143  1
  B  B32  1  0.48888304  0.99866649  0.10156135  1
  B  B33  1  0.98889996  0.50135390  0.39845306  1
  N  N34  1  0.01112006  0.99355960  0.55064229  1
  N  N35  1  0.51123230  0.50646259  0.94937613  1
  Cl  Cl36  1  0.49608174  0.14013438  0.97199705  1
  Cl  Cl37  1  0.26168176  0.98774471  0.21708454  1
  Cl  Cl38  1  0.67953142  0.00887149  0.26699264  1
  Cl  Cl39  1  0.99610702  0.35989572  0.52804004  1
  Cl  Cl40  1  0.21391160  0.02426847  0.67213756  1
  Cl  Cl41  1  0.83220440  0.98513789  0.70786926  1
  Cl  Cl42  1  0.51710025  0.85792981  0.97659180  1
  Cl  Cl43  1  0.76169993  0.51225600  0.28291893  1
  Cl  Cl44  1  0.17954400  0.49113487  0.23302380  1
  Cl  Cl45  1  0.01713048  0.64210046  0.52339714  1
  Cl  Cl46  1  0.33228398  0.51485478  0.79216334  1
  Cl  Cl47  1  0.71399422  0.47571634  0.82787304  1
