# generated using pymatgen
data_H10PbC3(N2Cl3)2
_symmetry_space_group_name_H-M   'P 1'
_cell_length_a   7.60413196
_cell_length_b   10.77440995
_cell_length_c   8.15207127
_cell_angle_alpha   95.46807003
_cell_angle_beta   89.99729371
_cell_angle_gamma   90.01254576
_symmetry_Int_Tables_number   1
_chemical_formula_structural   H10PbC3(N2Cl3)2
_chemical_formula_sum   'H20 Pb2 C6 N8 Cl12'
_cell_volume   664.86016320
_cell_formula_units_Z   2
loop_
 _symmetry_equiv_pos_site_id
 _symmetry_equiv_pos_as_xyz
  1  'x, y, z'
loop_
 _atom_site_type_symbol
 _atom_site_label
 _atom_site_symmetry_multiplicity
 _atom_site_fract_x
 _atom_site_fract_y
 _atom_site_fract_z
 _atom_site_occupancy
  C  C0  1  0.52923609  0.28470958  0.50022818  1
  C  C1  1  0.02917083  0.21529021  -0.00015925  1
  C  C2  1  0.50844648  0.79345489  0.51101779  1
  C  C3  1  0.00849128  0.70663164  0.98897146  1
  N  N4  1  0.59740578  0.22435932  0.61807153  1
  N  N5  1  0.41190434  0.23957628  0.39338023  1
  N  N6  1  0.09745659  0.27555089  0.88194249  1
  N  N7  1  0.91184828  0.26051069  0.10662595  1
  N  N8  1  0.58442962  0.72403480  0.61410706  1
  N  N9  1  0.39813271  0.75436818  0.39421167  1
  N  N10  1  0.08455014  0.77609764  0.88594804  1
  N  N11  1  0.89801208  0.74564991  0.10566337  1
  H  H12  1  0.57736014  0.37895326  0.48831133  1
  H  H13  1  0.67997684  0.27442187  0.69899199  1
  H  H14  1  0.54305561  0.14320219  0.65044544  1
  H  H15  1  0.36080884  0.29710293  0.31315790  1
  H  H16  1  0.36365254  0.15014685  0.38571863  1
  H  H17  1  0.07718192  0.12104871  0.01186811  1
  H  H18  1  0.17998426  0.22541882  0.80106737  1
  H  H19  1  0.04323666  0.35670927  0.84949344  1
  H  H20  1  0.86069260  0.20306140  0.18693062  1
  H  H21  1  0.86369812  0.34994808  0.11417846  1
  H  H22  1  0.53815835  0.89275293  0.52505705  1
  H  H23  1  0.67010025  0.76393353  0.69921129  1
  H  H24  1  0.57049351  0.62982800  0.60791201  1
  H  H25  1  0.34247805  0.81709520  0.32274921  1
  H  H26  1  0.35669669  0.66384576  0.37576009  1
  H  H27  1  0.03828419  0.60735559  0.97497647  1
  H  H28  1  0.17040021  0.73625611  0.80097604  1
  H  H29  1  0.07056719  0.87029723  0.89211763  1
  H  H30  1  0.84233490  0.68289638  0.17708924  1
  H  H31  1  0.85652129  0.83614902  0.12407321  1
  C  C32  1  0.56619196  0.01703436  0.01061666  1
  C  C33  1  0.06620861  0.48288528  0.48940888  1
  Pb  Pb34  1  0.99199448  0.01424229  0.49613100  1
  Pb  Pb35  1  0.49201826  0.48560070  0.00383614  1
  Cl  Cl36  1  0.51056894  0.18456672  0.00561014  1
  Cl  Cl37  1  0.20444915  0.99204364  0.23668512  1
  Cl  Cl38  1  0.69521484  0.01622620  0.22070770  1
  Cl  Cl39  1  0.01058459  0.31532317  0.49440134  1
  Cl  Cl40  1  0.27281055  0.03073021  0.69475891  1
  Cl  Cl41  1  0.74953827  0.98917789  0.84828662  1
  Cl  Cl42  1  0.47679233  0.72211376  0.99803586  1
  Cl  Cl43  1  0.70438887  0.50797112  0.26333201  1
  Cl  Cl44  1  0.19522705  0.48375514  0.27929683  1
  Cl  Cl45  1  0.97683893  0.77773267  0.50189655  1
  Cl  Cl46  1  0.24953327  0.51079393  0.65171485  1
  Cl  Cl47  1  0.77289283  0.46920874  0.80529212  1
