# generated using pymatgen
data_ScTlH12C2(I3N)2
_symmetry_space_group_name_H-M   'P 1'
_cell_length_a   8.55475556
_cell_length_b   12.36256776
_cell_length_c   8.40038592
_cell_angle_alpha   86.98561932
_cell_angle_beta   90.00332613
_cell_angle_gamma   90.03048233
_symmetry_Int_Tables_number   1
_chemical_formula_structural   ScTlH12C2(I3N)2
_chemical_formula_sum   'Sc2 Tl2 H24 C4 I12 N4'
_cell_volume   887.18490985
_cell_formula_units_Z   2
loop_
 _symmetry_equiv_pos_site_id
 _symmetry_equiv_pos_as_xyz
  1  'x, y, z'
loop_
 _atom_site_type_symbol
 _atom_site_label
 _atom_site_symmetry_multiplicity
 _atom_site_fract_x
 _atom_site_fract_y
 _atom_site_fract_z
 _atom_site_occupancy
  C  C0  1  0.39658454  0.25012040  0.41493077  1
  C  C1  1  0.89775131  0.25001268  0.08621664  1
  C  C2  1  0.60341141  0.74988247  0.58508431  1
  C  C3  1  0.10225631  0.74998846  0.91379558  1
  N  N4  1  0.53625431  0.24878361  0.52003305  1
  N  N5  1  0.03677493  0.25125770  0.98023344  1
  N  N6  1  0.46374124  0.75122130  0.47998433  1
  N  N7  1  0.96323328  0.74874006  0.01977951  1
  H  H8  1  0.43560207  0.25186674  0.29060882  1
  H  H9  1  0.32831040  0.17655805  0.44212588  1
  H  H10  1  0.32719893  0.32211861  0.43663149  1
  H  H11  1  0.60466388  0.18157250  0.49916660  1
  H  H12  1  0.60406607  0.31797067  0.49607873  1
  H  H13  1  0.50669333  0.24563335  0.64096054  1
  H  H14  1  0.93756731  0.24831419  0.21027769  1
  H  H15  1  0.82802643  0.17803244  0.06504118  1
  H  H16  1  0.82954206  0.32361567  0.05943266  1
  H  H17  1  0.10454521  0.18205339  0.00388275  1
  H  H18  1  0.10549097  0.31845746  0.00065125  1
  H  H19  1  0.00654957  0.25436538  0.85951306  1
  H  H20  1  0.56439637  0.74813726  0.70940747  1
  H  H21  1  0.67279647  0.67788367  0.56338374  1
  H  H22  1  0.67168683  0.82344433  0.55788797  1
  H  H23  1  0.39533199  0.81843031  0.50085115  1
  H  H24  1  0.39592888  0.68203182  0.50393846  1
  H  H25  1  0.49330116  0.75437049  0.35905582  1
  H  H26  1  0.06243978  0.75168900  0.78973469  1
  H  H27  1  0.17198093  0.82196821  0.93497417  1
  H  H28  1  0.17046625  0.67638515  0.94057603  1
  H  H29  1  0.89546065  0.81794351  0.99613298  1
  H  H30  1  0.89451947  0.68153948  0.99936075  1
  H  H31  1  0.99345910  0.74563156  0.14050031  1
  Sc  Sc32  1  0.50000303  0.00000676  0.00000938  1
  Sc  Sc33  1  0.99999252  0.50000144  0.49999638  1
  Tl  Tl34  1  0.00000270  0.00000186  0.50001155  1
  Tl  Tl35  1  0.49999565  0.50001217  0.99998948  1
  I  I36  1  0.47635449  0.23171633  0.94009893  1
  I  I37  1  0.20046121  0.00558970  0.15464883  1
  I  I38  1  0.65316658  0.02139470  0.30251007  1
  I  I39  1  0.97578929  0.26831566  0.56037387  1
  I  I40  1  0.34684219  0.97861534  0.69750733  1
  I  I41  1  0.79954558  0.99441388  0.84537070  1
  I  I42  1  0.52365189  0.76829663  0.05992163  1
  I  I43  1  0.70054560  0.49421189  0.34511720  1
  I  I44  1  0.15338660  0.47873400  0.19763977  1
  I  I45  1  0.02420165  0.73168832  0.43963487  1
  I  I46  1  0.29944354  0.50578995  0.65487469  1
  I  I47  1  0.84660978  0.52126972  0.80236011  1
