# generated using pymatgen
data_HgH10C3(N2Cl3)2
_symmetry_space_group_name_H-M   'P 1'
_cell_length_a   8.36435813
_cell_length_b   9.23739583
_cell_length_c   8.52752853
_cell_angle_alpha   88.73438251
_cell_angle_beta   89.99006738
_cell_angle_gamma   89.99846119
_symmetry_Int_Tables_number   1
_chemical_formula_structural   HgH10C3(N2Cl3)2
_chemical_formula_sum   'Hg2 H20 C6 N8 Cl12'
_cell_volume   658.71777961
_cell_formula_units_Z   2
loop_
 _symmetry_equiv_pos_site_id
 _symmetry_equiv_pos_as_xyz
  1  'x, y, z'
loop_
 _atom_site_type_symbol
 _atom_site_label
 _atom_site_symmetry_multiplicity
 _atom_site_fract_x
 _atom_site_fract_y
 _atom_site_fract_z
 _atom_site_occupancy
  C  C0  1  0.48202073  0.26261674  0.51897543  1
  C  C1  1  0.98258834  0.23726381  0.98054244  1
  C  C2  1  0.50116811  0.79247124  0.46358573  1
  C  C3  1  0.00132236  0.70778648  0.03666103  1
  N  N4  1  0.60269602  0.20045824  0.59296773  1
  N  N5  1  0.44138409  0.23358867  0.37437179  1
  N  N6  1  0.10343694  0.29944857  0.90685419  1
  N  N7  1  0.94128570  0.26656392  0.12493135  1
  N  N8  1  0.55494126  0.77479894  0.60683857  1
  N  N9  1  0.38505368  0.71462055  0.40337446  1
  N  N10  1  0.05466247  0.72512821  0.89318629  1
  N  N11  1  0.88523003  0.78560849  0.09698184  1
  H  H12  1  0.41315224  0.34415880  0.58237047  1
  H  H13  1  0.62471293  0.22255585  0.70693301  1
  H  H14  1  0.67626560  0.12770621  0.53868872  1
  H  H15  1  0.35800664  0.29880560  0.31690665  1
  H  H16  1  0.51208097  0.16435587  0.31140289  1
  H  H17  1  0.91408820  0.15552120  0.91710417  1
  H  H18  1  0.12594225  0.27717781  0.79300756  1
  H  H19  1  0.17664390  0.37244865  0.96116101  1
  H  H20  1  0.85790507  0.20128360  0.18232667  1
  H  H21  1  0.01162905  0.33598367  0.18798677  1
  H  H22  1  0.55737675  0.87620841  0.38886072  1
  H  H23  1  0.64605257  0.83937925  0.64893833  1
  H  H24  1  0.50269813  0.69667085  0.67928346  1
  H  H25  1  0.35531425  0.72655128  0.28828262  1
  H  H26  1  0.33275901  0.63132429  0.46594165  1
  H  H27  1  0.05787701  0.62430523  0.11146545  1
  H  H28  1  0.14585263  0.66062862  0.85108040  1
  H  H29  1  0.00219461  0.80307316  0.82068824  1
  H  H30  1  0.85588920  0.77398141  0.21221671  1
  H  H31  1  0.83268975  0.86875139  0.03439420  1
  C  C32  1  0.38195676  0.99669656  0.96809744  1
  C  C33  1  0.88185606  0.50304096  0.53215010  1
  Hg  Hg34  1  0.08186996  0.00615939  0.46658209  1
  Hg  Hg35  1  0.58187078  0.49367996  0.03380569  1
  Cl  Cl36  1  0.50054840  0.15656394  0.98026735  1
  Cl  Cl37  1  0.23849506  0.99922248  0.12398396  1
  Cl  Cl38  1  0.73805489  0.03407267  0.29725887  1
  Cl  Cl39  1  0.00055513  0.34327482  0.51974812  1
  Cl  Cl40  1  0.28654641  0.99602748  0.78110897  1
  Cl  Cl41  1  0.82765481  0.96794879  0.76050785  1
  Cl  Cl42  1  0.49768550  0.83673214  0.99416532  1
  Cl  Cl43  1  0.73838515  0.50059566  0.37633626  1
  Cl  Cl44  1  0.23779007  0.46612015  0.20285005  1
  Cl  Cl45  1  0.99748202  0.66310611  0.50619797  1
  Cl  Cl46  1  0.32787136  0.53209563  0.73953988  1
  Cl  Cl47  1  0.78647649  0.50350127  0.71919430  1
