# generated using pymatgen
data_H10PtC3(N2Cl3)2
_symmetry_space_group_name_H-M   'P 1'
_cell_length_a   7.59461754
_cell_length_b   10.16466296
_cell_length_c   8.08506035
_cell_angle_alpha   90.21726888
_cell_angle_beta   90.00019593
_cell_angle_gamma   89.99835450
_symmetry_Int_Tables_number   1
_chemical_formula_structural   H10PtC3(N2Cl3)2
_chemical_formula_sum   'H20 Pt2 C6 N8 Cl12'
_cell_volume   624.13571368
_cell_formula_units_Z   2
loop_
 _symmetry_equiv_pos_site_id
 _symmetry_equiv_pos_as_xyz
  1  'x, y, z'
loop_
 _atom_site_type_symbol
 _atom_site_label
 _atom_site_symmetry_multiplicity
 _atom_site_fract_x
 _atom_site_fract_y
 _atom_site_fract_z
 _atom_site_occupancy
  C  C0  1  0.50276047  0.29971220  0.49222767  1
  C  C1  1  0.00279473  0.20029595  0.00775791  1
  C  C2  1  0.50726530  0.79267303  0.50701050  1
  C  C3  1  0.00723540  0.70733588  0.99299387  1
  N  N4  1  0.59983279  0.24269414  0.60512288  1
  N  N5  1  0.40757542  0.24091529  0.37831446  1
  N  N6  1  0.09988305  0.25731148  0.89487757  1
  N  N7  1  0.90762297  0.25909095  0.12165876  1
  N  N8  1  0.61913387  0.73196187  0.60376891  1
  N  N9  1  0.39735551  0.73855596  0.40163363  1
  N  N10  1  0.11910657  0.76806584  0.89627885  1
  N  N11  1  0.89732577  0.76143447  0.09840180  1
  H  H12  1  0.50173863  0.40668652  0.49262332  1
  H  H13  1  0.66622228  0.30217209  0.68690798  1
  H  H14  1  0.62289732  0.14368806  0.61105274  1
  H  H15  1  0.33985933  0.29935463  0.29699715  1
  H  H16  1  0.38851656  0.14148463  0.37254077  1
  H  H17  1  0.00175524  0.09331406  0.00735037  1
  H  H18  1  0.16626790  0.19781429  0.81308060  1
  H  H19  1  0.12296005  0.35629584  0.88895607  1
  H  H20  1  0.83989031  0.20065973  0.20296648  1
  H  H21  1  0.88857046  0.35852107  0.12744204  1
  H  H22  1  0.50385755  0.89939270  0.51633342  1
  H  H23  1  0.70304748  0.79033996  0.67104509  1
  H  H24  1  0.63900241  0.63230950  0.60383013  1
  H  H25  1  0.31507571  0.80028209  0.33754070  1
  H  H26  1  0.39208046  0.64031366  0.37505577  1
  H  H27  1  0.00380168  0.60062247  0.98361704  1
  H  H28  1  0.20302616  0.70969146  0.82897129  1
  H  H29  1  0.13900647  0.86770965  0.89627173  1
  H  H30  1  0.81505505  0.69970074  0.16245965  1
  H  H31  1  0.89206117  0.85966896  0.12502282  1
  C  C32  1  0.37564872  0.99643336  0.98809669  1
  C  C33  1  0.87565751  0.50356734  0.51190549  1
  Pt  Pt34  1  0.00094362  0.00210508  0.50060184  1
  Pt  Pt35  1  0.50094930  0.49789737  0.99939507  1
  Cl  Cl36  1  0.50119860  0.13814281  0.99363179  1
  Cl  Cl37  1  0.17481144  0.98488312  0.26719792  1
  Cl  Cl38  1  0.75605805  0.00878432  0.32900854  1
  Cl  Cl39  1  0.00120526  0.36184885  0.50637308  1
  Cl  Cl40  1  0.25151514  0.02461436  0.65920581  1
  Cl  Cl41  1  0.82342249  0.99282456  0.73462394  1
  Cl  Cl42  1  0.51010004  0.85920884  0.99794023  1
  Cl  Cl43  1  0.67481068  0.51509529  0.23280928  1
  Cl  Cl44  1  0.25606168  0.49124941  0.17097732  1
  Cl  Cl45  1  0.01010905  0.64078143  0.50206171  1
  Cl  Cl46  1  0.32342654  0.50720426  0.76536837  1
  Cl  Cl47  1  0.75151714  0.47535341  0.84079573  1
