# generated using pymatgen
data_H10OsC3(N2Cl3)2
_symmetry_space_group_name_H-M   'P 1'
_cell_length_a   7.84880761
_cell_length_b   9.95003179
_cell_length_c   7.88204059
_cell_angle_alpha   90.53102064
_cell_angle_beta   89.99212676
_cell_angle_gamma   89.99734203
_symmetry_Int_Tables_number   1
_chemical_formula_structural   H10OsC3(N2Cl3)2
_chemical_formula_sum   'H20 Os2 C6 N8 Cl12'
_cell_volume   615.52849408
_cell_formula_units_Z   2
loop_
 _symmetry_equiv_pos_site_id
 _symmetry_equiv_pos_as_xyz
  1  'x, y, z'
loop_
 _atom_site_type_symbol
 _atom_site_label
 _atom_site_symmetry_multiplicity
 _atom_site_fract_x
 _atom_site_fract_y
 _atom_site_fract_z
 _atom_site_occupancy
  C  C0  1  0.49791185  0.29861286  0.49755323  1
  C  C1  1  0.99790803  0.20138036  0.00248794  1
  C  C2  1  0.50300639  0.79501241  0.50456685  1
  C  C3  1  0.00300242  0.70498666  0.99540065  1
  N  N4  1  0.60039531  0.24057651  0.60557661  1
  N  N5  1  0.39753628  0.23846339  0.38793537  1
  N  N6  1  0.10045232  0.25942920  0.89443736  1
  N  N7  1  0.89757261  0.26153896  0.11206266  1
  N  N8  1  0.61080315  0.73528017  0.60558934  1
  N  N9  1  0.39093863  0.73706406  0.40519433  1
  N  N10  1  0.11077683  0.76475067  0.89439186  1
  N  N11  1  0.89090975  0.76294041  0.09481202  1
  H  H12  1  0.49567085  0.40777671  0.49889348  1
  H  H13  1  0.67057385  0.30331582  0.68321439  1
  H  H14  1  0.61851102  0.13896765  0.61500654  1
  H  H15  1  0.32521358  0.30006668  0.31232059  1
  H  H16  1  0.38245723  0.13652660  0.37572720  1
  H  H17  1  0.99567654  0.09222124  0.00109823  1
  H  H18  1  0.17064436  0.19665294  0.81676643  1
  H  H19  1  0.11858838  0.36101118  0.88501369  1
  H  H20  1  0.82521738  0.19996137  0.18769954  1
  H  H21  1  0.88249745  0.36348194  0.12429058  1
  H  H22  1  0.50723087  0.90423931  0.50310442  1
  H  H23  1  0.69385604  0.79425739  0.67304994  1
  H  H24  1  0.61736425  0.63394361  0.62373779  1
  H  H25  1  0.31204358  0.79699281  0.33556407  1
  H  H26  1  0.37840163  0.63566272  0.38903913  1
  H  H27  1  0.00720064  0.59577089  0.99686784  1
  H  H28  1  0.19383348  0.70576100  0.82692371  1
  H  H29  1  0.11733256  0.86604260  0.87626223  1
  H  H30  1  0.81198521  0.70299576  0.16446466  1
  H  H31  1  0.87835597  0.86435383  0.11099890  1
  C  C32  1  0.50021580  0.10333878  0.99784935  1
  C  C33  1  0.00023012  0.39664082  0.50217967  1
  Os  Os34  1  0.99982432  0.01756324  0.49748862  1
  Os  Os35  1  0.49981490  0.48244581  0.00251650  1
  Cl  Cl36  1  0.50049348  0.26272917  0.00009446  1
  Cl  Cl37  1  0.18510933  0.99705173  0.25456345  1
  Cl  Cl38  1  0.75315899  0.01563470  0.31339605  1
  Cl  Cl39  1  0.00049387  0.23728591  0.49992871  1
  Cl  Cl40  1  0.24637257  0.01676401  0.68142829  1
  Cl  Cl41  1  0.81432454  0.00061105  0.74049948  1
  Cl  Cl42  1  0.49858680  0.71249723  0.00381080  1
  Cl  Cl43  1  0.68507177  0.50295480  0.24542535  1
  Cl  Cl44  1  0.25312601  0.48438410  0.18663000  1
  Cl  Cl45  1  0.99860745  0.78751571  0.49617209  1
  Cl  Cl46  1  0.31433796  0.49939357  0.75952625  1
  Cl  Cl47  1  0.74638298  0.48321466  0.81854410  1
