# generated using pymatgen
data_HfH10C3(N2Cl3)2
_symmetry_space_group_name_H-M   'P 1'
_cell_length_a   8.72482797
_cell_length_b   9.48285678
_cell_length_c   8.17040029
_cell_angle_alpha   97.32389743
_cell_angle_beta   89.98208579
_cell_angle_gamma   90.02008650
_symmetry_Int_Tables_number   1
_chemical_formula_structural   HfH10C3(N2Cl3)2
_chemical_formula_sum   'Hf2 H20 C6 N8 Cl12'
_cell_volume   670.47342646
_cell_formula_units_Z   2
loop_
 _symmetry_equiv_pos_site_id
 _symmetry_equiv_pos_as_xyz
  1  'x, y, z'
loop_
 _atom_site_type_symbol
 _atom_site_label
 _atom_site_symmetry_multiplicity
 _atom_site_fract_x
 _atom_site_fract_y
 _atom_site_fract_z
 _atom_site_occupancy
  C  C0  1  0.50918609  0.28809736  0.46487476  1
  C  C1  1  0.00904795  0.21172740  0.03526389  1
  C  C2  1  0.51474402  0.82535580  0.52702380  1
  C  C3  1  0.01475157  0.67474400  0.97287320  1
  N  N4  1  0.58250746  0.19686987  0.53982928  1
  N  N5  1  0.37455827  0.25762365  0.38772579  1
  N  N6  1  0.08270161  0.30274684  0.96021482  1
  N  N7  1  0.87453319  0.24256932  0.11256069  1
  N  N8  1  0.61276023  0.76083228  0.61392776  1
  N  N9  1  0.40876524  0.75998687  0.43201599  1
  N  N10  1  0.11296996  0.73901831  0.88584630  1
  N  N11  1  0.90874046  0.74032598  0.06766489  1
  H  H12  1  0.54980009  0.39701728  0.45881291  1
  H  H13  1  0.68010085  0.24207171  0.59291767  1
  H  H14  1  0.50727421  0.14419408  0.74754873  1
  H  H15  1  0.32634110  0.32777363  0.31888320  1
  H  H16  1  0.33380041  0.15624066  0.37425753  1
  H  H17  1  0.04924205  0.10269896  0.04130569  1
  H  H18  1  0.18009823  0.25726820  0.90698392  1
  H  H19  1  0.00760993  0.35587851  0.75282180  1
  H  H20  1  0.82612054  0.17257487  0.18153702  1
  H  H21  1  0.83415856  0.34405579  0.12605773  1
  H  H22  1  0.52319582  0.94145124  0.53381390  1
  H  H23  1  0.68865098  0.82205990  0.68708254  1
  H  H24  1  0.61446861  0.65371809  0.61725352  1
  H  H25  1  0.33783134  0.81730972  0.36566737  1
  H  H26  1  0.39720129  0.65217034  0.41190634  1
  H  H27  1  0.02304758  0.55867524  0.96638530  1
  H  H28  1  0.18881986  0.67761695  0.81283744  1
  H  H29  1  0.11484219  0.84610555  0.88220493  1
  H  H30  1  0.83766762  0.68318341  0.13417164  1
  H  H31  1  0.89729630  0.84814896  0.08744302  1
  C  C32  1  0.51058008  0.09310568  0.86408123  1
  C  C33  1  0.01074951  0.40700280  0.63629787  1
  Hf  Hf34  1  0.00104488  0.96157277  0.51178149  1
  Hf  Hf35  1  0.50114438  0.53835686  0.98816993  1
  Cl  Cl36  1  0.50989162  0.23209039  0.01762540  1
  Cl  Cl37  1  0.17390832  0.96962767  0.27448585  1
  Cl  Cl38  1  0.78833235  0.98434344  0.32867149  1
  Cl  Cl39  1  0.00973817  0.26803372  0.48270237  1
  Cl  Cl40  1  0.21759858  0.01814114  0.69530466  1
  Cl  Cl41  1  0.83615077  0.01607418  0.75029588  1
  Cl  Cl42  1  0.50099608  0.78391372  0.00644311  1
  Cl  Cl43  1  0.67391363  0.53056426  0.22549583  1
  Cl  Cl44  1  0.28831698  0.51562508  0.17133223  1
  Cl  Cl45  1  0.00081906  0.71601457  0.49339328  1
  Cl  Cl46  1  0.33629248  0.48375052  0.74972972  1
  Cl  Cl47  1  0.71770887  0.48173543  0.80458103  1
