# generated using pymatgen
data_BaH10C3(N2Cl3)2
_symmetry_space_group_name_H-M   'P 1'
_cell_length_a   7.53895153
_cell_length_b   10.78372454
_cell_length_c   8.28080979
_cell_angle_alpha   87.24146041
_cell_angle_beta   90.02696268
_cell_angle_gamma   90.16470728
_symmetry_Int_Tables_number   1
_chemical_formula_structural   BaH10C3(N2Cl3)2
_chemical_formula_sum   'Ba2 H20 C6 N8 Cl12'
_cell_volume   672.43016239
_cell_formula_units_Z   2
loop_
 _symmetry_equiv_pos_site_id
 _symmetry_equiv_pos_as_xyz
  1  'x, y, z'
loop_
 _atom_site_type_symbol
 _atom_site_label
 _atom_site_symmetry_multiplicity
 _atom_site_fract_x
 _atom_site_fract_y
 _atom_site_fract_z
 _atom_site_occupancy
  C  C0  1  0.46302479  0.26897504  0.51125006  1
  C  C1  1  0.96319141  0.23098269  0.99138862  1
  C  C2  1  0.53148658  0.77453100  0.48193785  1
  C  C3  1  0.03169888  0.72497711  0.01568987  1
  N  N4  1  0.59075344  0.21871688  0.59812593  1
  N  N5  1  0.40499902  0.22391853  0.37458139  1
  N  N6  1  0.09095506  0.27964687  0.90273211  1
  N  N7  1  0.90527613  0.27892421  0.12607863  1
  N  N8  1  0.55185019  0.77356848  0.63938704  1
  N  N9  1  0.41080415  0.71184762  0.40504079  1
  N  N10  1  0.05176346  0.72647520  0.85817716  1
  N  N11  1  0.90994678  0.78583877  0.09296748  1
  H  H12  1  0.39813214  0.35150308  0.55606573  1
  H  H13  1  0.61889263  0.25156930  0.70848706  1
  H  H14  1  0.65523370  0.13979324  0.56692909  1
  H  H15  1  0.32475246  0.28214794  0.30415388  1
  H  H16  1  0.47986101  0.15785986  0.31973141  1
  H  H17  1  0.89815755  0.14721432  0.94966904  1
  H  H18  1  0.12015029  0.24329468  0.79481188  1
  H  H19  1  0.15556623  0.35982359  0.92982851  1
  H  H20  1  0.82478799  0.22182628  0.19811183  1
  H  H21  1  0.98100640  0.34589014  0.17898803  1
  H  H22  1  0.61956918  0.83495128  0.40842094  1
  H  H23  1  0.64246677  0.83306628  0.68766304  1
  H  H24  1  0.47567574  0.71886576  0.71659642  1
  H  H25  1  0.40938886  0.72107885  0.28026411  1
  H  H26  1  0.31956567  0.65545001  0.46342915  1
  H  H27  1  0.12106824  0.66557137  0.08881810  1
  H  H28  1  0.14275015  0.66776524  0.80972214  1
  H  H29  1  0.97459630  0.78031828  0.78119598  1
  H  H30  1  0.90980080  0.77721125  0.21784879  1
  H  H31  1  0.81764693  0.84122868  0.03484780  1
  C  C32  1  0.43383880  0.03073430  0.97559192  1
  C  C33  1  0.93387320  0.46956446  0.52612531  1
  Ba  Ba34  1  0.06651539  0.00893803  0.47305775  1
  Ba  Ba35  1  0.56729249  0.49252129  0.02781551  1
  Cl  Cl36  1  0.49847125  0.21073505  0.97946461  1
  Cl  Cl37  1  0.23501198  0.01744672  0.11586989  1
  Cl  Cl38  1  0.72442582  0.04205096  0.29932740  1
  Cl  Cl39  1  0.99871494  0.29064574  0.52117543  1
  Cl  Cl40  1  0.32740870  0.02048842  0.76860048  1
  Cl  Cl41  1  0.82682738  0.98524802  0.75887463  1
  Cl  Cl42  1  0.48926350  0.75226484  0.03239521  1
  Cl  Cl43  1  0.73457926  0.48227611  0.38597104  1
  Cl  Cl44  1  0.22496079  0.46008134  0.20178138  1
  Cl  Cl45  1  0.98994755  0.74900562  0.46542740  1
  Cl  Cl46  1  0.32652371  0.51467428  0.74224968  1
  Cl  Cl47  1  0.82754563  0.47855595  0.73343725  1
