# generated using pymatgen
data_SnH10C3(N2Cl3)2
_symmetry_space_group_name_H-M   'P 1'
_cell_length_a   7.95257102
_cell_length_b   10.77802426
_cell_length_c   7.73713455
_cell_angle_alpha   87.84546686
_cell_angle_beta   89.99840491
_cell_angle_gamma   90.00377107
_symmetry_Int_Tables_number   1
_chemical_formula_structural   SnH10C3(N2Cl3)2
_chemical_formula_sum   'Sn2 H20 C6 N8 Cl12'
_cell_volume   662.70421684
_cell_formula_units_Z   2
loop_
 _symmetry_equiv_pos_site_id
 _symmetry_equiv_pos_as_xyz
  1  'x, y, z'
loop_
 _atom_site_type_symbol
 _atom_site_label
 _atom_site_symmetry_multiplicity
 _atom_site_fract_x
 _atom_site_fract_y
 _atom_site_fract_z
 _atom_site_occupancy
  C  C0  1  0.49551455  0.28449494  0.50048473  1
  C  C1  1  0.99564383  0.21547948  0.99953309  1
  C  C2  1  0.49093320  0.79625523  0.49219907  1
  C  C3  1  0.99094805  0.70374560  0.00783400  1
  N  N4  1  0.61455847  0.23229884  0.59465752  1
  N  N5  1  0.40493389  0.22945696  0.38434756  1
  N  N6  1  0.11472720  0.26764776  0.90534209  1
  N  N7  1  0.90500718  0.27056402  0.11557935  1
  N  N8  1  0.59557330  0.74698699  0.60585403  1
  N  N9  1  0.37945411  0.73580592  0.40271444  1
  N  N10  1  0.09555387  0.75301556  0.89413579  1
  N  N11  1  0.87948156  0.76418796  0.09732530  1
  H  H12  1  0.46797074  0.38197082  0.52131166  1
  H  H13  1  0.67792682  0.28434304  0.68043342  1
  H  H14  1  0.64579020  0.14064440  0.59098823  1
  H  H15  1  0.31698247  0.28100305  0.31756427  1
  H  H16  1  0.42627602  0.14115624  0.34698042  1
  H  H17  1  0.96812909  0.11798777  0.97880256  1
  H  H18  1  0.17816141  0.21554704  0.81969480  1
  H  H19  1  0.14592486  0.35931251  0.90889475  1
  H  H20  1  0.81703268  0.21905070  0.18236773  1
  H  H21  1  0.92634138  0.35889551  0.15286922  1
  H  H22  1  0.49913393  0.89630322  0.46781387  1
  H  H23  1  0.67422117  0.80482208  0.67070786  1
  H  H24  1  0.60133677  0.65380210  0.63446119  1
  H  H25  1  0.31004204  0.78483852  0.31283112  1
  H  H26  1  0.35758295  0.64262641  0.41723132  1
  H  H27  1  0.99917572  0.60370116  0.03225427  1
  H  H28  1  0.17419339  0.69518059  0.82926336  1
  H  H29  1  0.10128700  0.84619327  0.86548225  1
  H  H30  1  0.81009976  0.71515524  0.18725921  1
  H  H31  1  0.85759228  0.85736081  0.08279414  1
  C  C32  1  0.43252475  0.98075238  0.99035128  1
  C  C33  1  0.93251179  0.51927300  0.50965942  1
  Sn  Sn34  1  0.99624723  0.99385971  0.48915782  1
  Sn  Sn35  1  0.49625238  0.50622331  0.01085109  1
  Cl  Cl36  1  0.51679380  0.27974012  0.98854833  1
  Cl  Cl37  1  0.25267835  0.98507736  0.16387973  1
  Cl  Cl38  1  0.73711039  0.01668180  0.29102962  1
  Cl  Cl39  1  0.01671686  0.22033790  0.51147799  1
  Cl  Cl40  1  0.31111459  0.00503210  0.77509660  1
  Cl  Cl41  1  0.80709105  0.97602137  0.75894133  1
  Cl  Cl42  1  0.48777069  0.81444562  0.99669127  1
  Cl  Cl43  1  0.75266536  0.51490372  0.33613102  1
  Cl  Cl44  1  0.23711370  0.48333626  0.20898424  1
  Cl  Cl45  1  0.98772613  0.68559806  0.50330486  1
  Cl  Cl46  1  0.30706005  0.52398456  0.74108471  1
  Cl  Cl47  1  0.81111235  0.49496195  0.72490280  1
