# generated using pymatgen
data_CdH10C3(N2Cl3)2
_symmetry_space_group_name_H-M   'P 1'
_cell_length_a   7.67720418
_cell_length_b   9.60002142
_cell_length_c   8.76908647
_cell_angle_alpha   92.93638027
_cell_angle_beta   90.00791346
_cell_angle_gamma   90.00136238
_symmetry_Int_Tables_number   1
_chemical_formula_structural   CdH10C3(N2Cl3)2
_chemical_formula_sum   'Cd2 H20 C6 N8 Cl12'
_cell_volume   645.44471892
_cell_formula_units_Z   2
loop_
 _symmetry_equiv_pos_site_id
 _symmetry_equiv_pos_as_xyz
  1  'x, y, z'
loop_
 _atom_site_type_symbol
 _atom_site_label
 _atom_site_symmetry_multiplicity
 _atom_site_fract_x
 _atom_site_fract_y
 _atom_site_fract_z
 _atom_site_occupancy
  C  C0  1  0.50956743  0.32096729  0.48856825  1
  C  C1  1  0.00955874  0.17903676  0.01148633  1
  C  C2  1  0.51589602  0.74793084  0.45906467  1
  C  C3  1  0.01586139  0.75202174  0.04090578  1
  N  N4  1  0.54387377  0.25767944  0.61412742  1
  N  N5  1  0.42641285  0.26641489  0.36935435  1
  N  N6  1  0.04395554  0.24229743  0.88591619  1
  N  N7  1  0.92642424  0.23364543  0.13066487  1
  N  N8  1  0.55557419  0.69595048  0.59063293  1
  N  N9  1  0.37747722  0.71318022  0.37828991  1
  N  N10  1  0.05555254  0.80406246  0.90935599  1
  N  N11  1  0.87749129  0.78681152  0.12168393  1
  H  H12  1  0.55649613  0.42770995  0.48146658  1
  H  H13  1  0.61460226  0.31074433  0.69819981  1
  H  H14  1  0.50041729  0.15883944  0.63056316  1
  H  H15  1  0.39436276  0.32864200  0.28136443  1
  H  H16  1  0.38220213  0.16510486  0.35990282  1
  H  H17  1  0.05639303  0.07228645  0.01861691  1
  H  H18  1  0.11464608  0.18919300  0.80188736  1
  H  H19  1  0.00060440  0.34117656  0.86946471  1
  H  H20  1  0.89432828  0.17144209  0.21863908  1
  H  H21  1  0.88228117  0.33497286  0.14008835  1
  H  H22  1  0.60440113  0.82640904  0.41623628  1
  H  H23  1  0.67450324  0.71590162  0.63845007  1
  H  H24  1  0.47379063  0.63186279  0.64632969  1
  H  H25  1  0.34950054  0.77059695  0.28603398  1
  H  H26  1  0.29208341  0.63524087  0.41294274  1
  H  H27  1  0.10431337  0.67349032  0.08367413  1
  H  H28  1  0.17443904  0.78405448  0.86153386  1
  H  H29  1  0.97381760  0.86820879  0.85369718  1
  H  H30  1  0.84948673  0.72935089  0.21388685  1
  H  H31  1  0.79211047  0.86478848  0.08704541  1
  C  C32  1  0.66717391  0.99161455  0.96603246  1
  C  C33  1  0.16713800  0.50840067  0.53396091  1
  Cd  Cd34  1  0.06170824  0.95188889  0.46434916  1
  Cd  Cd35  1  0.56169923  0.54810223  0.03561071  1
  Cl  Cl36  1  0.52536997  0.12918377  0.99915526  1
  Cl  Cl37  1  0.24521691  0.98857431  0.24008811  1
  Cl  Cl38  1  0.77558333  0.04425584  0.39284925  1
  Cl  Cl39  1  0.02533614  0.37081388  0.50085796  1
  Cl  Cl40  1  0.25335562  0.01969705  0.68183042  1
  Cl  Cl41  1  0.72600218  0.98707229  0.76985374  1
  Cl  Cl42  1  0.47442009  0.79099688  0.96612178  1
  Cl  Cl43  1  0.74520461  0.51145100  0.25993057  1
  Cl  Cl44  1  0.27558300  0.45577233  0.10714557  1
  Cl  Cl45  1  0.97441230  0.70900230  0.53389077  1
  Cl  Cl46  1  0.22602390  0.51294935  0.73015041  1
  Cl  Cl47  1  0.75336702  0.48027338  0.81820364  1
