# generated using pymatgen
data_AgH10C3(N2Cl3)2
_symmetry_space_group_name_H-M   'P 1'
_cell_length_a   8.00907497
_cell_length_b   10.20516980
_cell_length_c   7.88570814
_cell_angle_alpha   89.78003759
_cell_angle_beta   91.97862512
_cell_angle_gamma   89.94220662
_symmetry_Int_Tables_number   1
_chemical_formula_structural   AgH10C3(N2Cl3)2
_chemical_formula_sum   'Ag2 H20 C6 N8 Cl12'
_cell_volume   644.14078249
_cell_formula_units_Z   2
loop_
 _symmetry_equiv_pos_site_id
 _symmetry_equiv_pos_as_xyz
  1  'x, y, z'
loop_
 _atom_site_type_symbol
 _atom_site_label
 _atom_site_symmetry_multiplicity
 _atom_site_fract_x
 _atom_site_fract_y
 _atom_site_fract_z
 _atom_site_occupancy
  C  C0  1  0.46820942  0.25366690  0.53055972  1
  C  C1  1  0.02699266  0.21981741  0.97877010  1
  C  C2  1  0.49522738  0.81472627  0.47438601  1
  C  C3  1  0.99346986  0.69987289  0.02085734  1
  N  N4  1  0.58830609  0.19527220  0.61872385  1
  N  N5  1  0.43014676  0.23260859  0.36915455  1
  N  N6  1  0.15903948  0.24789478  0.89093230  1
  N  N7  1  0.97886095  0.28426438  0.11206785  1
  N  N8  1  0.58225040  0.77030117  0.60604000  1
  N  N9  1  0.37245641  0.74988283  0.39809752  1
  N  N10  1  0.06673402  0.74369727  0.88620846  1
  N  N11  1  0.87225376  0.76135506  0.09733425  1
  H  H12  1  0.39504013  0.32801176  0.59500581  1
  H  H13  1  0.60000574  0.21038874  0.74839982  1
  H  H14  1  0.66121380  0.12478811  0.56631328  1
  H  H15  1  0.35315241  0.29972627  0.30813617  1
  H  H16  1  0.50590762  0.17834986  0.29426926  1
  H  H17  1  0.95095073  0.13602187  0.93631120  1
  H  H18  1  0.19834607  0.17969561  0.80475262  1
  H  H19  1  0.23874652  0.32231504  0.92431700  1
  H  H20  1  0.86967507  0.25564244  0.16445632  1
  H  H21  1  0.04839940  0.36000534  0.16360300  1
  H  H22  1  0.53137622  0.90896951  0.42091297  1
  H  H23  1  0.66695028  0.83202489  0.66863345  1
  H  H24  1  0.54137735  0.68732651  0.66595759  1
  H  H25  1  0.31413817  0.78906042  0.29320696  1
  H  H26  1  0.33686465  0.65844014  0.43610706  1
  H  H27  1  0.03897771  0.60758496  0.07624943  1
  H  H28  1  0.15709853  0.68722643  0.83094221  1
  H  H29  1  0.02693045  0.82999182  0.82930753  1
  H  H30  1  0.83146247  0.72590173  0.20904197  1
  H  H31  1  0.82959652  0.85133411  0.05574988  1
  C  C32  1  0.40209427  0.97350065  0.98977417  1
  C  C33  1  0.85841531  0.49856618  0.53443937  1
  Ag  Ag34  1  0.99691133  0.00525665  0.50762952  1
  Ag  Ag35  1  0.45793460  0.48115201  0.99888792  1
  Cl  Cl36  1  0.59408080  0.26713215  0.00805905  1
  Cl  Cl37  1  0.24013666  0.98488653  0.13832345  1
  Cl  Cl38  1  0.77589044  0.03126098  0.29772774  1
  Cl  Cl39  1  0.98698113  0.35887739  0.51503833  1
  Cl  Cl40  1  0.25430562  0.99759022  0.67219463  1
  Cl  Cl41  1  0.81310118  0.96973386  0.79451522  1
  Cl  Cl42  1  0.47184641  0.81073037  0.99506200  1
  Cl  Cl43  1  0.69132895  0.49086980  0.37811344  1
  Cl  Cl44  1  0.25143353  0.49145615  0.23172388  1
  Cl  Cl45  1  0.96899607  0.64707639  0.50018441  1
  Cl  Cl46  1  0.32754592  0.54973875  0.72193704  1
  Cl  Cl47  1  0.77886008  0.49606960  0.74168912  1
