# generated using pymatgen
data_H10PdC3(N2Cl3)2
_symmetry_space_group_name_H-M   'P 1'
_cell_length_a   7.64188799
_cell_length_b   10.10245686
_cell_length_c   8.00729591
_cell_angle_alpha   90.00080445
_cell_angle_beta   89.99977358
_cell_angle_gamma   90.00157410
_symmetry_Int_Tables_number   1
_chemical_formula_structural   H10PdC3(N2Cl3)2
_chemical_formula_sum   'H20 Pd2 C6 N8 Cl12'
_cell_volume   618.17800803
_cell_formula_units_Z   2
loop_
 _symmetry_equiv_pos_site_id
 _symmetry_equiv_pos_as_xyz
  1  'x, y, z'
loop_
 _atom_site_type_symbol
 _atom_site_label
 _atom_site_symmetry_multiplicity
 _atom_site_fract_x
 _atom_site_fract_y
 _atom_site_fract_z
 _atom_site_occupancy
  C  C0  1  0.50181584  0.29793933  0.50229433  1
  C  C1  1  0.00182593  0.20205318  0.99773636  1
  C  C2  1  0.50971872  0.79360656  0.50488170  1
  C  C3  1  0.00968321  0.70638440  0.99511205  1
  N  N4  1  0.60233347  0.24124863  0.61396287  1
  N  N5  1  0.40598424  0.23836280  0.38898842  1
  N  N6  1  0.10231813  0.25875428  0.88604608  1
  N  N7  1  0.90601880  0.26163470  0.11106340  1
  N  N8  1  0.61527009  0.73583363  0.61115652  1
  N  N9  1  0.39647708  0.73587188  0.40546998  1
  N  N10  1  0.11525122  0.76414946  0.88884904  1
  N  N11  1  0.89642009  0.76411520  0.09449227  1
  H  H12  1  0.49707849  0.40549172  0.50429127  1
  H  H13  1  0.66883712  0.30189643  0.69494023  1
  H  H14  1  0.62875327  0.14195637  0.61854036  1
  H  H15  1  0.33655088  0.29709335  0.30789909  1
  H  H16  1  0.39033629  0.13812104  0.38192297  1
  H  H17  1  0.99709243  0.09450608  0.99574514  1
  H  H18  1  0.16880532  0.19810812  0.80507190  1
  H  H19  1  0.12873100  0.35803873  0.88146632  1
  H  H20  1  0.83659514  0.20289447  0.19214932  1
  H  H21  1  0.89036708  0.36186658  0.11813324  1
  H  H22  1  0.51731260  0.90093473  0.49801734  1
  H  H23  1  0.70117049  0.79619700  0.67407244  1
  H  H24  1  0.62204841  0.63588438  0.63013134  1
  H  H25  1  0.31867261  0.79566168  0.33338769  1
  H  H26  1  0.38344531  0.63584124  0.39230106  1
  H  H27  1  0.01728272  0.59905488  0.00199539  1
  H  H28  1  0.20115197  0.70378907  0.82594496  1
  H  H29  1  0.12200438  0.86409539  0.86984418  1
  H  H30  1  0.81860414  0.70432735  0.16658406  1
  H  H31  1  0.88338322  0.86415434  0.10765390  1
  C  C32  1  0.37580734  0.99515329  0.99367065  1
  C  C33  1  0.87579959  0.50492606  0.50632575  1
  Pd  Pd34  1  0.00389477  0.00125549  0.49716726  1
  Pd  Pd35  1  0.50387808  0.49873855  0.00282692  1
  Cl  Cl36  1  0.50265348  0.13675190  0.99971711  1
  Cl  Cl37  1  0.17627061  0.98572482  0.26010162  1
  Cl  Cl38  1  0.75937723  0.01539745  0.32361974  1
  Cl  Cl39  1  0.00263565  0.36332489  0.50029932  1
  Cl  Cl40  1  0.25359504  0.01718622  0.66052161  1
  Cl  Cl41  1  0.82552593  0.98906046  0.73528167  1
  Cl  Cl42  1  0.50726156  0.85575321  0.00210850  1
  Cl  Cl43  1  0.67626476  0.51424588  0.23989240  1
  Cl  Cl44  1  0.25936367  0.48459771  0.17637733  1
  Cl  Cl45  1  0.00726089  0.64432488  0.49785679  1
  Cl  Cl46  1  0.32551079  0.51095175  0.76471271  1
  Cl  Cl47  1  0.75358021  0.48280341  0.83948017  1
