# generated using pymatgen
data_H10RuC3(N2Cl3)2
_symmetry_space_group_name_H-M   'P 1'
_cell_length_a   7.90832842
_cell_length_b   9.47212570
_cell_length_c   8.21912181
_cell_angle_alpha   88.95063394
_cell_angle_beta   90.00950166
_cell_angle_gamma   89.99937740
_symmetry_Int_Tables_number   1
_chemical_formula_structural   H10RuC3(N2Cl3)2
_chemical_formula_sum   'H20 Ru2 C6 N8 Cl12'
_cell_volume   615.58030568
_cell_formula_units_Z   2
loop_
 _symmetry_equiv_pos_site_id
 _symmetry_equiv_pos_as_xyz
  1  'x, y, z'
loop_
 _atom_site_type_symbol
 _atom_site_label
 _atom_site_symmetry_multiplicity
 _atom_site_fract_x
 _atom_site_fract_y
 _atom_site_fract_z
 _atom_site_occupancy
  C  C0  1  0.50654770  0.31430725  0.51257048  1
  C  C1  1  0.00651633  0.18564599  0.98731922  1
  C  C2  1  0.52327171  0.75828035  0.48608661  1
  C  C3  1  0.02356104  0.74206726  1.01420068  1
  N  N4  1  0.60893813  0.26725609  0.62606187  1
  N  N5  1  0.41855180  0.23336083  0.41617466  1
  N  N6  1  0.10884546  0.23283442  0.87388141  1
  N  N7  1  0.91852699  0.26646439  0.08381490  1
  N  N8  1  0.59191620  0.72230485  0.62543250  1
  N  N9  1  0.36986523  0.72419092  0.43974474  1
  N  N10  1  0.09207777  0.77755967  0.87465185  1
  N  N11  1  0.86998979  0.77591803  0.06021392  1
  H  H12  1  0.49514114  0.42796690  0.49542897  1
  H  H13  1  0.67288116  0.33923950  0.69544811  1
  H  H14  1  0.63777690  0.16232209  0.64444710  1
  H  H15  1  0.34092710  0.27818997  0.33125204  1
  H  H16  1  0.40729982  0.12696498  0.43479942  1
  H  H17  1  0.99515868  0.07195900  0.00428618  1
  H  H18  1  0.17281091  0.16091134  0.80442001  1
  H  H19  1  0.13761983  0.33777370  0.85559890  1
  H  H20  1  0.84098796  0.22153327  0.16870216  1
  H  H21  1  0.90726697  0.37288647  0.06537361  1
  H  H22  1  0.59953173  0.82135501  0.40161958  1
  H  H23  1  0.71441447  0.75074394  0.64593219  1
  H  H24  1  0.52908777  0.66251923  0.71114002  1
  H  H25  1  0.32076418  0.77385109  0.33878377  1
  H  H26  1  0.28619653  0.67562835  0.51668518  1
  H  H27  1  0.10006897  0.67965804  0.09909818  1
  H  H28  1  0.21472559  0.74941493  0.85443206  1
  H  H29  1  0.02907736  0.83680373  0.78855569  1
  H  H30  1  0.82110889  0.72670064  0.16152304  1
  H  H31  1  0.78611448  0.82390809  0.98298134  1
  C  C32  1  0.51996741  0.07136940  0.06685619  1
  C  C33  1  0.01992425  0.42858962  0.43303186  1
  Ru  Ru34  1  0.02740906  0.01454003  0.47866275  1
  Ru  Ru35  1  0.52755156  0.48541070  0.02125907  1
  Cl  Cl36  1  0.49527840  0.24427266  0.99609391  1
  Cl  Cl37  1  0.20052555  0.99905503  0.24525055  1
  Cl  Cl38  1  0.66963896  0.04440696  0.22686936  1
  Cl  Cl39  1  0.99516561  0.25568363  0.50380065  1
  Cl  Cl40  1  0.26246059  0.00141756  0.64690351  1
  Cl  Cl41  1  0.82662253  0.00112862  0.70534027  1
  Cl  Cl42  1  0.47422197  0.72636064  0.03881287  1
  Cl  Cl43  1  0.70057528  0.50089604  0.25476140  1
  Cl  Cl44  1  0.16960034  0.45548428  0.27306508  1
  Cl  Cl45  1  0.97410398  0.77357670  0.46108743  1
  Cl  Cl46  1  0.32677362  0.49874926  0.79448864  1
  Cl  Cl47  1  0.76263162  0.49860152  0.85316085  1
