# generated using pymatgen
data_ScH12AuC2(I3N)2
_symmetry_space_group_name_H-M   'P 1'
_cell_length_a   8.27866901
_cell_length_b   12.67997461
_cell_length_c   8.19980559
_cell_angle_alpha   85.17206419
_cell_angle_beta   101.38369437
_cell_angle_gamma   90.73266627
_symmetry_Int_Tables_number   1
_chemical_formula_structural   ScH12AuC2(I3N)2
_chemical_formula_sum   'Sc2 H24 Au2 C4 I12 N4'
_cell_volume   840.82694829
_cell_formula_units_Z   2
loop_
 _symmetry_equiv_pos_site_id
 _symmetry_equiv_pos_as_xyz
  1  'x, y, z'
loop_
 _atom_site_type_symbol
 _atom_site_label
 _atom_site_symmetry_multiplicity
 _atom_site_fract_x
 _atom_site_fract_y
 _atom_site_fract_z
 _atom_site_occupancy
  C  C0  1  0.40584688  0.24844723  0.41419686  1
  C  C1  1  0.91661391  0.25057374  0.08294442  1
  C  C2  1  0.59414830  0.75155523  0.58581934  1
  C  C3  1  0.08339551  0.74942823  0.91706454  1
  N  N4  1  0.56550442  0.24442982  0.53464054  1
  N  N5  1  0.05743616  0.25655363  0.99512686  1
  N  N6  1  0.43448856  0.75556870  0.46537625  1
  N  N7  1  0.94257205  0.74344920  0.00488167  1
  H  H8  1  0.43074481  0.25445665  0.28727679  1
  H  H9  1  0.33714489  0.17608631  0.43660436  1
  H  H10  1  0.33684895  0.31787361  0.43322662  1
  H  H11  1  0.63455386  0.17927333  0.51977616  1
  H  H12  1  0.63476292  0.31138608  0.51442811  1
  H  H13  1  0.54770686  0.23962786  0.65805195  1
  H  H14  1  0.96453527  0.24476290  0.21773033  1
  H  H15  1  0.84415238  0.18039569  0.04801321  1
  H  H16  1  0.84139449  0.32219172  0.04603811  1
  H  H17  1  0.13056642  0.18864814  0.02625662  1
  H  H18  1  0.12992495  0.32180601  0.02674545  1
  H  H19  1  0.02048718  0.26337638  0.86484159  1
  H  H20  1  0.56925123  0.74555148  0.71273952  1
  H  H21  1  0.66314472  0.68212692  0.56679572  1
  H  H22  1  0.66284946  0.82391499  0.56340333  1
  H  H23  1  0.36543653  0.82072420  0.48023898  1
  H  H24  1  0.36523511  0.68861078  0.48559382  1
  H  H25  1  0.45228603  0.76036946  0.34196545  1
  H  H26  1  0.03547446  0.75523716  0.78227862  1
  H  H27  1  0.15585626  0.81960682  0.95199396  1
  H  H28  1  0.15861517  0.67781060  0.95397356  1
  H  H29  1  0.86944120  0.81135424  0.97374993  1
  H  H30  1  0.87008436  0.67819588  0.97326417  1
  H  H31  1  0.97952049  0.73662781  0.13516690  1
  Sc  Sc32  1  0.49999932  0.00000417  0.00001043  1
  Sc  Sc33  1  0.99999774  0.50000451  0.50000034  1
  Au  Au34  1  0.99999956  0.00000477  0.50001097  1
  Au  Au35  1  0.49999984  0.50001123  0.99999747  1
  I  I36  1  0.46752990  0.22327276  0.93710218  1
  I  I37  1  0.22239012  0.99783564  0.15312461  1
  I  I38  1  0.69309976  0.02512085  0.34413983  1
  I  I39  1  0.00492046  0.27447183  0.55906727  1
  I  I40  1  0.30689834  0.97488359  0.65588141  1
  I  I41  1  0.77760631  0.00216776  0.84689273  1
  I  I42  1  0.53247691  0.77673581  0.06292079  1
  I  I43  1  0.64899660  0.49117823  0.31417983  1
  I  I44  1  0.14639354  0.49387085  0.21945157  1
  I  I45  1  0.99507363  0.72553626  0.44093877  1
  I  I46  1  0.35100488  0.50882457  0.68581746  1
  I  I47  1  0.85361302  0.50613466  0.78055719  1
