# generated using pymatgen
data_SrH10C3(N2Cl3)2
_symmetry_space_group_name_H-M   'P 1'
_cell_length_a   7.39753201
_cell_length_b   10.68590569
_cell_length_c   8.16511041
_cell_angle_alpha   95.76681571
_cell_angle_beta   89.99645958
_cell_angle_gamma   90.00410250
_symmetry_Int_Tables_number   1
_chemical_formula_structural   SrH10C3(N2Cl3)2
_chemical_formula_sum   'Sr2 H20 C6 N8 Cl12'
_cell_volume   642.17994160
_cell_formula_units_Z   2
loop_
 _symmetry_equiv_pos_site_id
 _symmetry_equiv_pos_as_xyz
  1  'x, y, z'
loop_
 _atom_site_type_symbol
 _atom_site_label
 _atom_site_symmetry_multiplicity
 _atom_site_fract_x
 _atom_site_fract_y
 _atom_site_fract_z
 _atom_site_occupancy
  C  C0  1  0.55601524  0.26698957  0.50197140  1
  C  C1  1  0.05597929  0.23301574  0.99809044  1
  C  C2  1  0.45857965  0.77416735  0.52232156  1
  C  C3  1  0.95858678  0.72582647  0.97763084  1
  N  N4  1  0.61105729  0.19297705  0.61480481  1
  N  N5  1  0.42654313  0.23888570  0.39726804  1
  N  N6  1  0.11108992  0.30698884  0.88522060  1
  N  N7  1  0.92648805  0.26116213  0.10275888  1
  N  N8  1  0.57602268  0.70137347  0.58643304  1
  N  N9  1  0.43773122  0.78520224  0.36453630  1
  N  N10  1  0.07601281  0.79866468  0.91352813  1
  N  N11  1  0.93769927  0.71480369  0.13541012  1
  H  H12  1  0.62712927  0.35592362  0.49482231  1
  H  H13  1  0.68239649  0.24194851  0.70886387  1
  H  H14  1  0.51956218  0.12680724  0.64965794  1
  H  H15  1  0.39604453  0.30197828  0.31566642  1
  H  H16  1  0.35419916  0.15590857  0.38719075  1
  H  H17  1  0.12706055  0.14408315  0.00529944  1
  H  H18  1  0.18242976  0.25798129  0.79118868  1
  H  H19  1  0.01962698  0.37314981  0.85032350  1
  H  H20  1  0.89592827  0.19810331  0.18439724  1
  H  H21  1  0.85416981  0.34414286  0.11277861  1
  H  H22  1  0.37218125  0.83279243  0.60715242  1
  H  H23  1  0.57725651  0.70109644  0.71247637  1
  H  H24  1  0.66272505  0.64415624  0.51589089  1
  H  H25  1  0.34687233  0.84952962  0.32750232  1
  H  H26  1  0.51065729  0.73532412  0.27368453  1
  H  H27  1  0.87225707  0.66716006  0.89278684  1
  H  H28  1  0.07728329  0.79893151  0.78748673  1
  H  H29  1  0.16265164  0.85592500  0.98408146  1
  H  H30  1  0.84686528  0.65044636  0.17244330  1
  H  H31  1  0.01057956  0.76471389  0.22626826  1
  C  C32  1  0.56525497  0.02481993  0.01476331  1
  C  C33  1  0.06523840  0.47516573  0.48527885  1
  Sr  Sr34  1  0.94378835  0.02215614  0.51409395  1
  Sr  Sr35  1  0.44378521  0.47781947  0.98591792  1
  Cl  Cl36  1  0.51441786  0.20455933  0.01520651  1
  Cl  Cl37  1  0.17570781  0.00374368  0.24227650  1
  Cl  Cl38  1  0.68127078  0.01697442  0.22841226  1
  Cl  Cl39  1  0.01447164  0.29539809  0.48481496  1
  Cl  Cl40  1  0.25814914  0.04937526  0.70107936  1
  Cl  Cl41  1  0.75908434  0.99829066  0.86729656  1
  Cl  Cl42  1  0.48749709  0.72808213  0.97092522  1
  Cl  Cl43  1  0.67566440  0.49625185  0.25773675  1
  Cl  Cl44  1  0.18123758  0.48306753  0.27163456  1
  Cl  Cl45  1  0.98752406  0.77189015  0.52902303  1
  Cl  Cl46  1  0.25905485  0.50173220  0.63273483  1
  Cl  Cl47  1  0.75819128  0.45057714  0.79897417  1
