# generated using pymatgen
data_GeH10C3(N2Cl3)2
_symmetry_space_group_name_H-M   'P 1'
_cell_length_a   7.72432045
_cell_length_b   10.75043929
_cell_length_c   7.84932151
_cell_angle_alpha   90.67569827
_cell_angle_beta   89.99515703
_cell_angle_gamma   89.99999662
_symmetry_Int_Tables_number   1
_chemical_formula_structural   GeH10C3(N2Cl3)2
_chemical_formula_sum   'Ge2 H20 C6 N8 Cl12'
_cell_volume   651.76105905
_cell_formula_units_Z   2
loop_
 _symmetry_equiv_pos_site_id
 _symmetry_equiv_pos_as_xyz
  1  'x, y, z'
loop_
 _atom_site_type_symbol
 _atom_site_label
 _atom_site_symmetry_multiplicity
 _atom_site_fract_x
 _atom_site_fract_y
 _atom_site_fract_z
 _atom_site_occupancy
  C  C0  1  0.49167998  0.29545516  0.50101631  1
  C  C1  1  0.99182100  0.20440995  -0.00101622  1
  C  C2  1  0.50898647  0.78997612  0.50690085  1
  C  C3  1  0.00861598  0.71002062  0.99311755  1
  N  N4  1  0.59891931  0.23980317  0.60437842  1
  N  N5  1  0.38862504  0.24072901  0.39113788  1
  N  N6  1  0.09883173  0.26021414  0.89557587  1
  N  N7  1  0.88856990  0.25899183  0.10886834  1
  N  N8  1  0.61206289  0.73733797  0.61674976  1
  N  N9  1  0.40158090  0.73261735  0.40301812  1
  N  N10  1  0.11140335  0.76278209  0.88307426  1
  N  N11  1  0.90132765  0.76726714  0.09721655  1
  H  H12  1  0.48744466  0.39663190  0.50815554  1
  H  H13  1  0.67532952  0.29374149  0.68152722  1
  H  H14  1  0.61176883  0.14566013  0.61337235  1
  H  H15  1  0.30611258  0.29386925  0.32158455  1
  H  H16  1  0.38457421  0.14683223  0.37093156  1
  H  H17  1  0.98796373  0.10322154  0.99194518  1
  H  H18  1  0.17539472  0.20639299  0.81838750  1
  H  H19  1  0.11131015  0.35437697  0.88648232  1
  H  H20  1  0.80621877  0.20572370  0.17843903  1
  H  H21  1  0.88425099  0.35288034  0.12902926  1
  H  H22  1  0.51299174  0.89108790  0.50055220  1
  H  H23  1  0.69043715  0.79487849  0.68754640  1
  H  H24  1  0.62252541  0.64348239  0.63393483  1
  H  H25  1  0.32719012  0.78547041  0.32437716  1
  H  H26  1  0.37997418  0.63905192  0.40217162  1
  H  H27  1  0.01279646  0.60890768  0.99939124  1
  H  H28  1  0.18969610  0.70534788  0.81202844  1
  H  H29  1  0.12158727  0.85664744  0.86588319  1
  H  H30  1  0.82715461  0.71433944  0.17598778  1
  H  H31  1  0.87964795  0.86082998  0.09824012  1
  C  C32  1  0.48685186  0.97715161  0.05651549  1
  C  C33  1  0.98696110  0.52298864  0.44357599  1
  Ge  Ge34  1  0.01117939  0.00638775  0.51125135  1
  Ge  Ge35  1  0.51115529  0.49385448  0.98867080  1
  Cl  Cl36  1  0.48930949  0.28236828  0.00222829  1
  Cl  Cl37  1  0.27351294  0.98118105  0.19311619  1
  Cl  Cl38  1  0.66751127  0.00627735  0.23176875  1
  Cl  Cl39  1  0.98942268  0.21788408  0.49781167  1
  Cl  Cl40  1  0.25763005  0.01241910  0.69487513  1
  Cl  Cl41  1  0.80764767  0.98449222  0.74172769  1
  Cl  Cl42  1  0.50779074  0.81124166  0.00715543  1
  Cl  Cl43  1  0.77350639  0.51876243  0.30716363  1
  Cl  Cl44  1  0.16739520  0.49371093  0.26834969  1
  Cl  Cl45  1  0.00792472  0.68900482  0.49258830  1
  Cl  Cl46  1  0.30770609  0.51576701  0.75819344  1
  Cl  Cl47  1  0.75772107  0.48759292  0.80510775  1
