# generated using pymatgen
data_ZnH10C3(N2Cl3)2
_symmetry_space_group_name_H-M   'P 1'
_cell_length_a   7.94466284
_cell_length_b   9.69590983
_cell_length_c   8.32251158
_cell_angle_alpha   88.67075367
_cell_angle_beta   90.02539220
_cell_angle_gamma   90.00926426
_symmetry_Int_Tables_number   1
_chemical_formula_structural   ZnH10C3(N2Cl3)2
_chemical_formula_sum   'Zn2 H20 C6 N8 Cl12'
_cell_volume   640.91659166
_cell_formula_units_Z   2
loop_
 _symmetry_equiv_pos_site_id
 _symmetry_equiv_pos_as_xyz
  1  'x, y, z'
loop_
 _atom_site_type_symbol
 _atom_site_label
 _atom_site_symmetry_multiplicity
 _atom_site_fract_x
 _atom_site_fract_y
 _atom_site_fract_z
 _atom_site_occupancy
  C  C0  1  0.52274692  0.29572968  0.47493660  1
  C  C1  1  0.02287023  0.20401189  0.02504989  1
  C  C2  1  0.52272583  0.77972081  0.51513377  1
  C  C3  1  0.02256046  0.72016120  0.98480127  1
  N  N4  1  0.59104257  0.25872717  0.61282748  1
  N  N5  1  0.38478258  0.24486268  0.41382377  1
  N  N6  1  0.09147595  0.24071234  0.88724537  1
  N  N7  1  0.88544281  0.25568163  0.08619078  1
  N  N8  1  0.60714452  0.76095380  0.64912056  1
  N  N9  1  0.42732251  0.68532179  0.45027864  1
  N  N10  1  0.10699893  0.73891907  0.85088616  1
  N  N11  1  0.92729302  0.81459642  0.04963829  1
  H  H12  1  0.58706149  0.37647403  0.40512436  1
  H  H13  1  0.69991691  0.30602300  0.64608999  1
  H  H14  1  0.54030676  0.18871571  0.69279724  1
  H  H15  1  0.33679023  0.29255583  0.31267568  1
  H  H16  1  0.31449152  0.17125669  0.47440087  1
  H  H17  1  0.08644781  0.12282470  0.09482495  1
  H  H18  1  0.19969314  0.19256736  0.85385505  1
  H  H19  1  0.04132925  0.31102946  0.80726669  1
  H  H20  1  0.83719585  0.20821087  0.18731717  1
  H  H21  1  0.81562577  0.32963476  0.02563771  1
  H  H22  1  0.53672393  0.87892511  0.45183714  1
  H  H23  1  0.67644904  0.84203781  0.69305663  1
  H  H24  1  0.61114371  0.66826128  0.71145953  1
  H  H25  1  0.37367063  0.70165642  0.34052445  1
  H  H26  1  0.40140538  0.59438435  0.51092672  1
  H  H27  1  0.03640119  0.62093129  0.04804594  1
  H  H28  1  0.17625237  0.65783959  0.80699020  1
  H  H29  1  0.11110614  0.83163899  0.78860099  1
  H  H30  1  0.87342665  0.79814683  0.15923137  1
  H  H31  1  0.90140479  0.90555544  0.98899751  1
  C  C32  1  0.33648091  0.93474988  0.02798694  1
  C  C33  1  0.83701647  0.56610880  0.47232853  1
  Zn  Zn34  1  0.94802652  0.07551362  0.54832468  1
  Zn  Zn35  1  0.44797598  0.42427867  0.95156536  1
  Cl  Cl36  1  0.48596397  0.19325121  0.99333598  1
  Cl  Cl37  1  0.27243067  0.94503180  0.22870909  1
  Cl  Cl38  1  0.79978977  0.00217420  0.33452132  1
  Cl  Cl39  1  0.98519472  0.30673098  0.50708016  1
  Cl  Cl40  1  0.21223189  0.99197767  0.60743682  1
  Cl  Cl41  1  0.80025785  0.01761719  0.77529302  1
  Cl  Cl42  1  0.51034425  0.82802795  0.02398345  1
  Cl  Cl43  1  0.77209600  0.55554479  0.27181793  1
  Cl  Cl44  1  0.29970770  0.49787049  0.16514834  1
  Cl  Cl45  1  0.01110482  0.67263800  0.47555404  1
  Cl  Cl46  1  0.30011653  0.48223635  0.72457557  1
  Cl  Cl47  1  0.71203235  0.50824338  0.89285076  1
