# generated using pymatgen
data_CaH10C3(N2Cl3)2
_symmetry_space_group_name_H-M   'P 1'
_cell_length_a   7.95440449
_cell_length_b   10.53608252
_cell_length_c   8.17918795
_cell_angle_alpha   88.69747166
_cell_angle_beta   89.92454199
_cell_angle_gamma   90.07191228
_symmetry_Int_Tables_number   1
_chemical_formula_structural   CaH10C3(N2Cl3)2
_chemical_formula_sum   'Ca2 H20 C6 N8 Cl12'
_cell_volume   685.30524259
_cell_formula_units_Z   2
loop_
 _symmetry_equiv_pos_site_id
 _symmetry_equiv_pos_as_xyz
  1  'x, y, z'
loop_
 _atom_site_type_symbol
 _atom_site_label
 _atom_site_symmetry_multiplicity
 _atom_site_fract_x
 _atom_site_fract_y
 _atom_site_fract_z
 _atom_site_occupancy
  C  C0  1  0.45995885  0.26579547  0.51153458  1
  C  C1  1  0.97037366  0.23482946  0.99003850  1
  C  C2  1  0.53346530  0.77096831  0.47332388  1
  C  C3  1  0.02604893  0.72557201  0.01853146  1
  N  N4  1  0.56855907  0.21121612  0.61114701  1
  N  N5  1  0.43370495  0.23286041  0.35969640  1
  N  N6  1  0.09130457  0.28379835  0.89917892  1
  N  N7  1  0.93998726  0.26570351  0.14190894  1
  N  N8  1  0.56726100  0.76275989  0.63031293  1
  N  N9  1  0.41610067  0.70597406  0.39993791  1
  N  N10  1  0.05089777  0.73400690  0.86003451  1
  N  N11  1  0.91079021  0.78781710  0.09893013  1
  H  H12  1  0.38602061  0.34447295  0.55865970  1
  H  H13  1  0.57282276  0.23594291  0.73278504  1
  H  H14  1  0.63613028  0.13374773  0.57769974  1
  H  H15  1  0.35278728  0.28729012  0.29054884  1
  H  H16  1  0.50612663  0.16548719  0.30447951  1
  H  H17  1  0.89015053  0.16260169  0.93593010  1
  H  H18  1  0.09548734  0.26496867  0.77592715  1
  H  H19  1  0.16490109  0.35526506  0.94151815  1
  H  H20  1  0.84727591  0.21717273  0.20398113  1
  H  H21  1  0.01271244  0.33035291  0.20163981  1
  H  H22  1  0.60702463  0.83802697  0.39786711  1
  H  H23  1  0.65159392  0.82471759  0.68113070  1
  H  H24  1  0.49749767  0.70504180  0.70663798  1
  H  H25  1  0.40365731  0.71817099  0.27578830  1
  H  H26  1  0.33768433  0.64453920  0.46174336  1
  H  H27  1  0.10562481  0.66004396  0.08967948  1
  H  H28  1  0.13727505  0.67566743  0.80576379  1
  H  H29  1  0.98068922  0.79375235  0.78706948  1
  H  H30  1  0.91175237  0.78027963  0.22456517  1
  H  H31  1  0.82916491  0.84954291  0.04247739  1
  C  C32  1  0.40326210  0.99741437  0.96964039  1
  C  C33  1  0.91004951  0.49783836  0.53363653  1
  Ca  Ca34  1  0.97598673  0.00901325  0.50150313  1
  Ca  Ca35  1  0.48228709  0.50481991  -0.00146329  1
  Cl  Cl36  1  0.55452633  0.26587730  0.98487897  1
  Cl  Cl37  1  0.23649729  0.00258232  0.11202793  1
  Cl  Cl38  1  0.72715114  0.03089457  0.29330316  1
  Cl  Cl39  1  0.04618209  0.24938952  0.52307028  1
  Cl  Cl40  1  0.31364952  0.99098079  0.77165480  1
  Cl  Cl41  1  0.80595269  0.97779130  0.77280115  1
  Cl  Cl42  1  0.51521165  0.75000180  0.02754947  1
  Cl  Cl43  1  0.74489589  0.49252140  0.38977498  1
  Cl  Cl44  1  0.23295417  0.47239837  0.20574383  1
  Cl  Cl45  1  0.02790264  0.76750592  0.46665317  1
  Cl  Cl46  1  0.31052077  0.52752908  0.72785463  1
  Cl  Cl47  1  0.81815837  0.49511830  0.73100854  1
