# generated using pymatgen
data_SiH10C3(N2Cl3)2
_symmetry_space_group_name_H-M   'P 1'
_cell_length_a   7.68227878
_cell_length_b   10.77356910
_cell_length_c   7.79789118
_cell_angle_alpha   90.10448704
_cell_angle_beta   90.00959295
_cell_angle_gamma   90.00895739
_symmetry_Int_Tables_number   1
_chemical_formula_structural   SiH10C3(N2Cl3)2
_chemical_formula_sum   'Si2 H20 C6 N8 Cl12'
_cell_volume   645.39575032
_cell_formula_units_Z   2
loop_
 _symmetry_equiv_pos_site_id
 _symmetry_equiv_pos_as_xyz
  1  'x, y, z'
loop_
 _atom_site_type_symbol
 _atom_site_label
 _atom_site_symmetry_multiplicity
 _atom_site_fract_x
 _atom_site_fract_y
 _atom_site_fract_z
 _atom_site_occupancy
  C  C0  1  0.48920092  0.29608208  0.50340814  1
  C  C1  1  0.98915051  0.20396629  0.99657109  1
  C  C2  1  0.51272034  0.79036268  0.50846485  1
  C  C3  1  0.01259151  0.70961499  0.99171725  1
  N  N4  1  0.59651109  0.23893066  0.60720154  1
  N  N5  1  0.38394528  0.24302908  0.39367688  1
  N  N6  1  0.09622900  0.26122589  0.89259318  1
  N  N7  1  0.88377866  0.25693944  0.10613173  1
  N  N8  1  0.61791091  0.73684812  0.61763832  1
  N  N9  1  0.40319286  0.73407858  0.40543704  1
  N  N10  1  0.11765559  0.76314531  0.88248020  1
  N  N11  1  0.90306354  0.76587294  0.09473351  1
  H  H12  1  0.48662372  0.39705895  0.51013599  1
  H  H13  1  0.67414499  0.29153806  0.68481424  1
  H  H14  1  0.60943969  0.14489688  0.61419169  1
  H  H15  1  0.30163685  0.29796149  0.32452325  1
  H  H16  1  0.37748408  0.14942733  0.37372965  1
  H  H17  1  0.98701888  0.10297739  0.99009085  1
  H  H18  1  0.17401766  0.20869188  0.81510002  1
  H  H19  1  0.10876583  0.35527509  0.88537534  1
  H  H20  1  0.80168585  0.20194020  0.17544409  1
  H  H21  1  0.87701171  0.35055463  0.12587424  1
  H  H22  1  0.51676482  0.89136009  0.50222361  1
  H  H23  1  0.69847294  0.79308140  0.68753748  1
  H  H24  1  0.62882839  0.64311783  0.63406524  1
  H  H25  1  0.32736119  0.78755398  0.32732409  1
  H  H26  1  0.38468882  0.64041025  0.40149309  1
  H  H27  1  0.01672323  0.60862587  0.99806572  1
  H  H28  1  0.19823298  0.70694229  0.81260319  1
  H  H29  1  0.12854295  0.85688187  0.86602506  1
  H  H30  1  0.82733639  0.71237672  0.17290861  1
  H  H31  1  0.88450121  0.85953074  0.09861496  1
  C  C32  1  0.48453780  0.98507602  0.05563215  1
  C  C33  1  0.98466153  0.51480913  0.44438923  1
  Si  Si34  1  0.01020650  0.00707375  0.51572098  1
  Si  Si35  1  0.51005612  0.49294008  0.98427573  1
  Cl  Cl36  1  0.48494616  0.29400364  0.00560283  1
  Cl  Cl37  1  0.27255491  0.98406184  0.19594065  1
  Cl  Cl38  1  0.66703379  0.01018286  0.23060196  1
  Cl  Cl39  1  0.98513189  0.20599706  0.49417110  1
  Cl  Cl40  1  0.24824105  0.01437377  0.68753468  1
  Cl  Cl41  1  0.81654809  0.98537045  0.73528932  1
  Cl  Cl42  1  0.50817889  0.82033388  0.00312056  1
  Cl  Cl43  1  0.77260971  0.51577152  0.30413474  1
  Cl  Cl44  1  0.16707058  0.48972051  0.26942018  1
  Cl  Cl45  1  0.00831936  0.67957280  0.49686553  1
  Cl  Cl46  1  0.31649323  0.51476751  0.76463008  1
  Cl  Cl47  1  0.74819734  0.48570914  0.81258094  1
