# generated using pymatgen
data_MgH10C3(N2Cl3)2
_symmetry_space_group_name_H-M   'P 1'
_cell_length_a   8.03301399
_cell_length_b   10.31243923
_cell_length_c   8.23142258
_cell_angle_alpha   93.00504382
_cell_angle_beta   90.00550343
_cell_angle_gamma   89.99991145
_symmetry_Int_Tables_number   1
_chemical_formula_structural   MgH10C3(N2Cl3)2
_chemical_formula_sum   'Mg2 H20 C6 N8 Cl12'
_cell_volume   680.95313303
_cell_formula_units_Z   2
loop_
 _symmetry_equiv_pos_site_id
 _symmetry_equiv_pos_as_xyz
  1  'x, y, z'
loop_
 _atom_site_type_symbol
 _atom_site_label
 _atom_site_symmetry_multiplicity
 _atom_site_fract_x
 _atom_site_fract_y
 _atom_site_fract_z
 _atom_site_occupancy
  C  C0  1  0.53759211  0.27759829  0.49273553  1
  C  C1  1  0.03758574  0.22240367  0.00729412  1
  C  C2  1  0.48213122  0.76517233  0.52589389  1
  C  C3  1  0.98219429  0.73476060  0.97411321  1
  N  N4  1  0.53804504  0.24798366  0.64545195  1
  N  N5  1  0.44588686  0.22058737  0.37784385  1
  N  N6  1  0.03804757  0.25193435  0.85454807  1
  N  N7  1  0.94585490  0.27945929  0.12211427  1
  N  N8  1  0.57728973  0.68039195  0.59434875  1
  N  N9  1  0.46298809  0.77440246  0.36848764  1
  N  N10  1  0.07731751  0.81955530  0.90565702  1
  N  N11  1  0.96292487  0.72563995  0.13151799  1
  H  H12  1  0.61913212  0.35600736  0.45744095  1
  H  H13  1  0.61387575  0.29996417  0.72460064  1
  H  H14  1  0.46171783  0.17750873  0.68785944  1
  H  H15  1  0.45106971  0.25031537  0.26018623  1
  H  H16  1  0.37140661  0.14278629  0.39757950  1
  H  H17  1  0.11913973  0.14402580  0.04267740  1
  H  H18  1  0.11392453  0.19994131  0.77546026  1
  H  H19  1  0.96172621  0.32238647  0.81206088  1
  H  H20  1  0.95103373  0.24978858  0.23979349  1
  H  H21  1  0.87136788  0.35723209  0.10228036  1
  H  H22  1  0.41396075  0.83436189  0.60629187  1
  H  H23  1  0.57824462  0.67866908  0.71854561  1
  H  H24  1  0.65040007  0.61653791  0.52746025  1
  H  H25  1  0.38470567  0.84340275  0.32470771  1
  H  H26  1  0.51968884  0.71208762  0.28511327  1
  H  H27  1  0.91416597  0.66546493  0.89372382  1
  H  H28  1  0.07834523  0.82122319  0.78145954  1
  H  H29  1  0.15030479  0.88350409  0.97255091  1
  H  H30  1  0.88469459  0.65661326  0.17530483  1
  H  H31  1  0.01949662  0.78804686  0.21488461  1
  C  C32  1  0.57866860  0.99184186  0.00520104  1
  C  C33  1  0.07865422  0.50821867  0.49481009  1
  Mg  Mg34  1  0.06318123  0.00453211  0.48676755  1
  Mg  Mg35  1  0.56320091  0.49552633  0.01323739  1
  Cl  Cl36  1  0.42435633  0.30107818  0.01449612  1
  Cl  Cl37  1  0.20750517  0.98232357  0.23909218  1
  Cl  Cl38  1  0.69840458  0.99500155  0.18057988  1
  Cl  Cl39  1  0.92444996  0.19903461  0.48548865  1
  Cl  Cl40  1  0.26682427  0.02864362  0.69069609  1
  Cl  Cl41  1  0.70995863  0.99005065  0.83765034  1
  Cl  Cl42  1  0.44300328  0.69322839  0.97259323  1
  Cl  Cl43  1  0.70752061  0.51769277  0.26093609  1
  Cl  Cl44  1  0.19841234  0.50505797  0.31947116  1
  Cl  Cl45  1  0.94287309  0.80686544  0.52736100  1
  Cl  Cl46  1  0.20992400  0.50991155  0.66240119  1
  Cl  Cl47  1  0.76682295  0.47129874  0.80933490  1
