# generated using pymatgen
data_H10C3N5Cl6
_symmetry_space_group_name_H-M   'P 1'
_cell_length_a   7.76400618
_cell_length_b   9.46688049
_cell_length_c   8.25676893
_cell_angle_alpha   97.28816171
_cell_angle_beta   86.96012642
_cell_angle_gamma   90.51118556
_symmetry_Int_Tables_number   1
_chemical_formula_structural   H10C3N5Cl6
_chemical_formula_sum   'H20 C6 N10 Cl12'
_cell_volume   601.12838514
_cell_formula_units_Z   2
loop_
 _symmetry_equiv_pos_site_id
 _symmetry_equiv_pos_as_xyz
  1  'x, y, z'
loop_
 _atom_site_type_symbol
 _atom_site_label
 _atom_site_symmetry_multiplicity
 _atom_site_fract_x
 _atom_site_fract_y
 _atom_site_fract_z
 _atom_site_occupancy
  C  C0  1  0.54369041  0.24062685  0.46612744  1
  C  C1  1  0.05152168  0.25514890  0.03085357  1
  C  C2  1  0.48569335  0.79155730  0.50530685  1
  C  C3  1  0.98385592  0.71237162  0.00585484  1
  N  N4  1  0.53470483  0.14657956  0.57069606  1
  N  N5  1  0.42876206  0.25471492  0.35982135  1
  N  N6  1  0.03341567  0.34523582  0.92371356  1
  N  N7  1  0.94278854  0.24251381  0.15422010  1
  N  N8  1  0.61248847  0.71701946  0.54998080  1
  N  N9  1  0.43373588  0.78381258  0.35610476  1
  N  N10  1  0.11166627  0.78452378  0.94540435  1
  N  N11  1  0.92573588  0.73189674  0.15875499  1
  H  H12  1  0.65452223  0.31241588  0.46756215  1
  H  H13  1  0.62684638  0.14566164  0.65389909  1
  H  H14  1  0.42266255  0.09233023  0.58921857  1
  H  H15  1  0.45451979  0.33046422  0.28369021  1
  H  H16  1  0.32809763  0.18321571  0.33881889  1
  H  H17  1  0.16476153  0.18638001  0.01661261  1
  H  H18  1  0.11775365  0.34158344  0.82461011  1
  H  H19  1  0.91791457  0.39547678  0.91714332  1
  H  H20  1  0.97314548  0.16903832  0.22942087  1
  H  H21  1  0.84049097  0.31251977  0.18375193  1
  H  H22  1  0.41773901  0.86465283  0.59986582  1
  H  H23  1  0.63178495  0.72196922  0.67205383  1
  H  H24  1  0.66506492  0.63415599  0.46943756  1
  H  H25  1  0.33800123  0.85119666  0.32857292  1
  H  H26  1  0.48873857  0.71290087  0.26418470  1
  H  H27  1  0.92018803  0.63178956  0.92279501  1
  H  H28  1  0.15085858  0.76186798  0.82566963  1
  H  H29  1  0.17187582  0.86400990  0.01844422  1
  H  H30  1  0.83129397  0.66356938  0.19654095  1
  H  H31  1  0.97848104  0.81017152  0.23908461  1
  C  C32  1  0.61246782  0.01289771  0.97704459  1
  C  C33  1  0.12275190  0.51324382  0.50289870  1
  N  N34  1  0.93951502  0.05198911  0.65791229  1
  N  N35  1  0.48166977  0.52154774  0.87756474  1
  Cl  Cl36  1  0.50586318  0.17656386  0.97163031  1
  Cl  Cl37  1  0.16596531  0.00197707  0.26787629  1
  Cl  Cl38  1  0.68256245  0.00263151  0.17333381  1
  Cl  Cl39  1  0.99798933  0.35738236  0.52764123  1
  Cl  Cl40  1  0.15308219  0.03482802  0.71614826  1
  Cl  Cl41  1  0.78617886  0.98039399  0.79496787  1
  Cl  Cl42  1  0.51560642  0.70728241  0.93409636  1
  Cl  Cl43  1  0.67646858  0.49224643  0.24132556  1
  Cl  Cl44  1  0.20116310  0.50830309  0.29650362  1
  Cl  Cl45  1  0.00087658  0.67319885  0.55407998  1
  Cl  Cl46  1  0.29467546  0.51717270  0.65716813  1
  Cl  Cl47  1  0.68038355  0.45703304  0.78169735  1
