# generated using pymatgen
data_BiH10C2N5Cl6
_symmetry_space_group_name_H-M   'P 1'
_cell_length_a   7.99542522
_cell_length_b   9.68746414
_cell_length_c   8.58948135
_cell_angle_alpha   100.54315834
_cell_angle_beta   89.99167291
_cell_angle_gamma   89.98995599
_symmetry_Int_Tables_number   1
_chemical_formula_structural   BiH10C2N5Cl6
_chemical_formula_sum   'Bi2 H20 C4 N10 Cl12'
_cell_volume   654.06960207
_cell_formula_units_Z   2
loop_
 _symmetry_equiv_pos_site_id
 _symmetry_equiv_pos_as_xyz
  1  'x, y, z'
loop_
 _atom_site_type_symbol
 _atom_site_label
 _atom_site_symmetry_multiplicity
 _atom_site_fract_x
 _atom_site_fract_y
 _atom_site_fract_z
 _atom_site_occupancy
  C  C0  1  0.52725344  0.28778764  0.49464417  1
  C  C1  1  0.02827790  0.21246222  0.00540836  1
  C  C2  1  0.52730292  0.79315924  0.50531548  1
  C  C3  1  0.02708308  0.70683227  0.99468103  1
  N  N4  1  0.54781013  0.21172009  0.60525948  1
  N  N5  1  0.40454192  0.27287297  0.39223914  1
  N  N6  1  0.04798092  0.28837666  0.89454438  1
  N  N7  1  0.90540255  0.22665437  0.10768249  1
  N  N8  1  0.57188739  0.71788948  0.61151879  1
  N  N9  1  0.41159560  0.75881850  0.39759087  1
  N  N10  1  0.07142603  0.78220066  0.88849856  1
  N  N11  1  0.91142476  0.74106740  0.10252846  1
  H  H12  1  0.62140330  0.36748518  0.48538234  1
  H  H13  1  0.64396628  0.23511166  0.68323068  1
  H  H14  1  0.45898022  0.14224661  0.62978275  1
  H  H15  1  0.40589467  0.32916538  0.30323481  1
  H  H16  1  0.31760280  0.19364080  0.38171575  1
  H  H17  1  0.12326271  0.13348385  0.01497878  1
  H  H18  1  0.14436996  0.26553882  0.81669533  1
  H  H19  1  0.95858369  0.35735749  0.86990732  1
  H  H20  1  0.90768813  0.17083540  0.19709690  1
  H  H21  1  0.81758907  0.30519870  0.11784177  1
  H  H22  1  0.59622344  0.89082559  0.50929485  1
  H  H23  1  0.65922910  0.75978388  0.69316618  1
  H  H24  1  0.50820180  0.63030181  0.62913649  1
  H  H25  1  0.38060545  0.83238346  0.33070377  1
  H  H26  1  0.32265302  0.67393705  0.40784659  1
  H  H27  1  0.09615228  0.60920300  0.99055031  1
  H  H28  1  0.15884039  0.74047041  0.80680771  1
  H  H29  1  0.00765299  0.86982832  0.87108179  1
  H  H30  1  0.88059760  0.66746520  0.16942551  1
  H  H31  1  0.82247865  0.82599466  0.09239373  1
  N  N32  1  0.68983844  0.94103176  0.07214654  1
  N  N33  1  0.18988942  0.55895996  0.42792442  1
  Bi  Bi34  1  0.99629753  0.98351825  0.48833604  1
  Bi  Bi35  1  0.49660004  0.51649577  0.01181141  1
  Cl  Cl36  1  0.46994750  0.25114487  0.98875199  1
  Cl  Cl37  1  0.19878189  0.99504706  0.24191596  1
  Cl  Cl38  1  0.67189088  0.01316005  0.27727024  1
  Cl  Cl39  1  0.96976394  0.24882063  0.51104223  1
  Cl  Cl40  1  0.24606545  0.00890391  0.68249950  1
  Cl  Cl41  1  0.80579755  0.98786488  0.74478793  1
  Cl  Cl42  1  0.51392992  0.83782468  0.00835731  1
  Cl  Cl43  1  0.69906218  0.50456313  0.25796850  1
  Cl  Cl44  1  0.17210858  0.48704378  0.22269849  1
  Cl  Cl45  1  0.01388603  0.66208193  0.49172228  1
  Cl  Cl46  1  0.30604322  0.51252941  0.75539702  1
  Cl  Cl47  1  0.74615459  0.49097412  0.81729030  1
