# generated using pymatgen
data_TlH10C2N5Cl6
_symmetry_space_group_name_H-M   'P 1'
_cell_length_a   7.73015051
_cell_length_b   10.30721324
_cell_length_c   8.27214496
_cell_angle_alpha   92.46753434
_cell_angle_beta   89.94821556
_cell_angle_gamma   89.99044629
_symmetry_Int_Tables_number   1
_chemical_formula_structural   TlH10C2N5Cl6
_chemical_formula_sum   'Tl2 H20 C4 N10 Cl12'
_cell_volume   658.48257357
_cell_formula_units_Z   2
loop_
 _symmetry_equiv_pos_site_id
 _symmetry_equiv_pos_as_xyz
  1  'x, y, z'
loop_
 _atom_site_type_symbol
 _atom_site_label
 _atom_site_symmetry_multiplicity
 _atom_site_fract_x
 _atom_site_fract_y
 _atom_site_fract_z
 _atom_site_occupancy
  C  C0  1  0.53219308  0.26058793  0.47996191  1
  C  C1  1  0.03189531  0.23903192  0.02002980  1
  C  C2  1  0.49078182  0.79421801  0.51751590  1
  C  C3  1  0.99111903  0.70584173  0.98216338  1
  N  N4  1  0.54583015  0.22248597  0.62881283  1
  N  N5  1  0.40827039  0.22628418  0.37881328  1
  N  N6  1  0.04516729  0.27782240  0.87144358  1
  N  N7  1  0.90883443  0.27358107  0.12222895  1
  N  N8  1  0.61092820  0.72956843  0.59290997  1
  N  N9  1  0.43530600  0.76306064  0.37155963  1
  N  N10  1  0.11127944  0.77043718  0.90656238  1
  N  N11  1  0.93546954  0.73712249  0.12812472  1
  H  H12  1  0.63134435  0.32639336  0.43711699  1
  H  H13  1  0.63912402  0.26468166  0.70065274  1
  H  H14  1  0.45609569  0.16225487  0.67952520  1
  H  H15  1  0.41780481  0.25103728  0.25952379  1
  H  H16  1  0.31000590  0.16532020  0.40790240  1
  H  H17  1  0.13060292  0.17240153  0.06172353  1
  H  H18  1  0.13769650  0.23540135  0.79872257  1
  H  H19  1  0.95559221  0.33863840  0.82161285  1
  H  H20  1  0.91882614  0.24831744  0.24127878  1
  H  H21  1  0.81131484  0.33565529  0.09452810  1
  H  H22  1  0.43285818  0.87870395  0.58224478  1
  H  H23  1  0.63918258  0.75493090  0.71022852  1
  H  H24  1  0.66790347  0.64776735  0.54263807  1
  H  H25  1  0.34738257  0.82307989  0.31753085  1
  H  H26  1  0.48937906  0.68513724  0.30802779  1
  H  H27  1  0.93330308  0.62131301  0.91758166  1
  H  H28  1  0.13973347  0.74487915  0.78929768  1
  H  H29  1  0.16819316  0.85227869  0.95663811  1
  H  H30  1  0.84749974  0.67714575  0.18224738  1
  H  H31  1  0.98943722  0.81511629  0.19150600  1
  N  N32  1  0.59184785  0.98110888  0.01622957  1
  N  N33  1  0.09201144  0.51880484  0.48369126  1
  Tl  Tl34  1  0.98250246  0.97780296  0.52777883  1
  Tl  Tl35  1  0.48257938  0.52194291  0.97224556  1
  Cl  Cl36  1  0.46516605  0.26646660  0.00828242  1
  Cl  Cl37  1  0.18138534  0.97319595  0.23782617  1
  Cl  Cl38  1  0.67953085  0.99988113  0.20993003  1
  Cl  Cl39  1  0.96546382  0.23343332  0.49241609  1
  Cl  Cl40  1  0.25991574  0.02268576  0.73520094  1
  Cl  Cl41  1  0.75969093  0.99962167  0.87238210  1
  Cl  Cl42  1  0.52407588  0.78853005  0.98653743  1
  Cl  Cl43  1  0.68162638  0.52678785  0.26185322  1
  Cl  Cl44  1  0.17990569  0.49995919  0.28989870  1
  Cl  Cl45  1  0.02410115  0.71119197  0.51326725  1
  Cl  Cl46  1  0.25974725  0.50035249  0.62742796  1
  Cl  Cl47  1  0.76011451  0.47780190  0.76448309  1
