# generated using pymatgen
data_H10IrC2N5Cl6
_symmetry_space_group_name_H-M   'P 1'
_cell_length_a   8.06669831
_cell_length_b   9.72914808
_cell_length_c   7.95977495
_cell_angle_alpha   91.52115951
_cell_angle_beta   90.00636466
_cell_angle_gamma   89.98977672
_symmetry_Int_Tables_number   1
_chemical_formula_structural   H10IrC2N5Cl6
_chemical_formula_sum   'H20 Ir2 C4 N10 Cl12'
_cell_volume   624.47970761
_cell_formula_units_Z   2
loop_
 _symmetry_equiv_pos_site_id
 _symmetry_equiv_pos_as_xyz
  1  'x, y, z'
loop_
 _atom_site_type_symbol
 _atom_site_label
 _atom_site_symmetry_multiplicity
 _atom_site_fract_x
 _atom_site_fract_y
 _atom_site_fract_z
 _atom_site_occupancy
  C  C0  1  0.49625159  0.30348898  0.49343236  1
  C  C1  1  0.99644124  0.19654928  0.00650210  1
  C  C2  1  0.50300522  0.79739765  0.50251354  1
  C  C3  1  0.00298017  0.70260770  0.99743615  1
  N  N4  1  0.60033867  0.24335277  0.59522428  1
  N  N5  1  0.39187838  0.24273857  0.39081229  1
  N  N6  1  0.10034897  0.25670655  0.90470964  1
  N  N7  1  0.89210331  0.25726136  0.10932685  1
  N  N8  1  0.61110664  0.73537516  0.59675616  1
  N  N9  1  0.38893257  0.73893898  0.40849646  1
  N  N10  1  0.11110190  0.76462605  0.90322055  1
  N  N11  1  0.88899347  0.76106578  0.09151408  1
  H  H12  1  0.49710670  0.41511372  0.49587597  1
  H  H13  1  0.67088208  0.30681839  0.67232400  1
  H  H14  1  0.61633839  0.13944807  0.60218918  1
  H  H15  1  0.31578597  0.30363167  0.32064030  1
  H  H16  1  0.37430041  0.13865165  0.37916781  1
  H  H17  1  0.99728988  0.08492733  0.00399207  1
  H  H18  1  0.17089605  0.19326002  0.82755230  1
  H  H19  1  0.11636787  0.36062552  0.89778383  1
  H  H20  1  0.81619546  0.19630155  0.17953270  1
  H  H21  1  0.87450668  0.36132821  0.12106597  1
  H  H22  1  0.50905514  0.90893662  0.50205523  1
  H  H23  1  0.69572367  0.79366763  0.66245559  1
  H  H24  1  0.61468440  0.63198885  0.61365104  1
  H  H25  1  0.31003115  0.79957092  0.34230801  1
  H  H26  1  0.37508069  0.63533319  0.39179801  1
  H  H27  1  0.00898155  0.59106215  0.99774502  1
  H  H28  1  0.19565908  0.70631130  0.83745915  1
  H  H29  1  0.11474542  0.86802179  0.88645598  1
  H  H30  1  0.81009648  0.70043652  0.15766579  1
  H  H31  1  0.87518805  0.86467417  0.10835307  1
  N  N32  1  0.54375167  0.15617704  0.08258407  1
  N  N33  1  0.04417336  0.34382160  0.41775569  1
  Ir  Ir34  1  0.00079047  0.00735134  0.50623954  1
  Ir  Ir35  1  0.50085699  0.49262050  0.99372803  1
  Cl  Cl36  1  0.47799872  0.26474273  0.96481701  1
  Cl  Cl37  1  0.17656961  0.99769783  0.26726114  1
  Cl  Cl38  1  0.76689758  0.00596153  0.32788091  1
  Cl  Cl39  1  0.97789068  0.23523583  0.53516227  1
  Cl  Cl40  1  0.24168423  0.01260537  0.68290731  1
  Cl  Cl41  1  0.81853587  0.99817549  0.74272359  1
  Cl  Cl42  1  0.50227766  0.73643170  0.00030555  1
  Cl  Cl43  1  0.67666743  0.50225774  0.23272135  1
  Cl  Cl44  1  0.26698384  0.49404838  0.17205283  1
  Cl  Cl45  1  0.00226866  0.76354060  0.49965361  1
  Cl  Cl46  1  0.31855495  0.50182485  0.75723692  1
  Cl  Cl47  1  0.74172041  0.48735233  0.81705946  1
