# generated using pymatgen
data_ScInH12C2(I3N)2
_symmetry_space_group_name_H-M   'P 1'
_cell_length_a   8.55397234
_cell_length_b   12.26097918
_cell_length_c   8.38711542
_cell_angle_alpha   87.77249865
_cell_angle_beta   90.00062667
_cell_angle_gamma   90.00186440
_symmetry_Int_Tables_number   1
_chemical_formula_structural   ScInH12C2(I3N)2
_chemical_formula_sum   'Sc2 In2 H24 C4 I12 N4'
_cell_volume   878.97662935
_cell_formula_units_Z   2
loop_
 _symmetry_equiv_pos_site_id
 _symmetry_equiv_pos_as_xyz
  1  'x, y, z'
loop_
 _atom_site_type_symbol
 _atom_site_label
 _atom_site_symmetry_multiplicity
 _atom_site_fract_x
 _atom_site_fract_y
 _atom_site_fract_z
 _atom_site_occupancy
  C  C0  1  0.42733618  0.25120454  0.42710575  1
  C  C1  1  0.92719368  0.24883774  0.07296854  1
  C  C2  1  0.57279663  0.74886215  0.57283323  1
  C  C3  1  0.07263816  0.75113291  0.92709905  1
  N  N4  1  0.56245485  0.24943381  0.53855206  1
  N  N5  1  0.06230684  0.25056509  0.96152577  1
  N  N6  1  0.43767791  0.75062389  0.46139181  1
  N  N7  1  0.93753421  0.74932892  0.03855572  1
  H  H8  1  0.47226150  0.25258508  0.30481566  1
  H  H9  1  0.35764381  0.17742259  0.45017438  1
  H  H10  1  0.35776022  0.32435155  0.44672921  1
  H  H11  1  0.63157498  0.18148499  0.52124334  1
  H  H12  1  0.63187984  0.31833159  0.51768058  1
  H  H13  1  0.52812167  0.24733977  0.65838289  1
  H  H14  1  0.97212514  0.24748525  0.19525541  1
  H  H15  1  0.85759338  0.17568887  0.05338855  1
  H  H16  1  0.85752497  0.32261975  0.04985551  1
  H  H17  1  0.13170697  0.18165766  0.98241548  1
  H  H18  1  0.13146360  0.31850276  0.97880919  1
  H  H19  1  0.02798674  0.25265070  0.84169012  1
  H  H20  1  0.52786906  0.74746813  0.69512198  1
  H  H21  1  0.64239257  0.67572569  0.55319733  1
  H  H22  1  0.64246750  0.82265605  0.54977298  1
  H  H23  1  0.36854172  0.81856393  0.47870464  1
  H  H24  1  0.36826038  0.68172330  0.48225824  1
  H  H25  1  0.47199895  0.75272551  0.34155617  1
  H  H26  1  0.02769140  0.75252914  0.80481557  1
  H  H27  1  0.14221269  0.82428473  0.94673627  1
  H  H28  1  0.14233477  0.67735354  0.95013027  1
  H  H29  1  0.86807112  0.81820709  0.01770597  1
  H  H30  1  0.86843797  0.68136471  0.02124247  1
  H  H31  1  0.97187056  0.74723682  0.15838655  1
  Sc  Sc32  1  0.49997554  0.00000293  0.99998282  1
  Sc  Sc33  1  0.00003553  0.50001603  0.50001914  1
  In  In34  1  0.99997145  0.00002509  0.50000344  1
  In  In35  1  0.49999140  0.49999589  0.00000991  1
  I  I36  1  0.49242082  0.23470927  0.95498772  1
  I  I37  1  0.20640362  0.00834047  0.16661656  1
  I  I38  1  0.66536288  0.01546065  0.29786453  1
  I  I39  1  0.99277675  0.26536416  0.54508806  1
  I  I40  1  0.33462122  0.98452486  0.70213891  1
  I  I41  1  0.79357643  0.99170208  0.83346456  1
  I  I42  1  0.50751392  0.76529594  0.04497240  1
  I  I43  1  0.70646688  0.49166529  0.33338143  1
  I  I44  1  0.16538177  0.48454334  0.20214175  1
  I  I45  1  0.00759372  0.73471912  0.45501814  1
  I  I46  1  0.29360528  0.50837537  0.66662475  1
  I  I47  1  0.83459656  0.51538958  0.79788179  1
