# generated using pymatgen
data_InH10C2N5Cl6
_symmetry_space_group_name_H-M   'P 1'
_cell_length_a   8.36561218
_cell_length_b   9.46988082
_cell_length_c   8.10942185
_cell_angle_alpha   97.04676217
_cell_angle_beta   89.95040289
_cell_angle_gamma   90.00736105
_symmetry_Int_Tables_number   1
_chemical_formula_structural   InH10C2N5Cl6
_chemical_formula_sum   'In2 H20 C4 N10 Cl12'
_cell_volume   637.58635285
_cell_formula_units_Z   2
loop_
 _symmetry_equiv_pos_site_id
 _symmetry_equiv_pos_as_xyz
  1  'x, y, z'
loop_
 _atom_site_type_symbol
 _atom_site_label
 _atom_site_symmetry_multiplicity
 _atom_site_fract_x
 _atom_site_fract_y
 _atom_site_fract_z
 _atom_site_occupancy
  C  C0  1  0.52791616  0.25796725  0.47032131  1
  C  C1  1  0.02804729  0.24196303  0.02950698  1
  C  C2  1  0.51765320  0.80402736  0.53067865  1
  C  C3  1  0.01743279  0.69609680  0.96948476  1
  N  N4  1  0.56290818  0.20663625  0.60890262  1
  N  N5  1  0.38324193  0.27936430  0.41632218  1
  N  N6  1  0.06244587  0.29362015  0.89091959  1
  N  N7  1  0.88358314  0.22027269  0.08414987  1
  N  N8  1  0.60400082  0.72845289  0.62268908  1
  N  N9  1  0.39652177  0.75744343  0.43777120  1
  N  N10  1  0.10388739  0.77137709  0.87707512  1
  N  N11  1  0.89616710  0.74289180  0.06228015  1
  H  H12  1  0.62729231  0.28779606  0.39456338  1
  H  H13  1  0.67979952  0.19876196  0.64190382  1
  H  H14  1  0.47718388  0.17510626  0.68688840  1
  H  H15  1  0.37165568  0.30852776  0.29970674  1
  H  H16  1  0.28145878  0.25901490  0.47869751  1
  H  H17  1  0.12773754  0.21211398  0.10465590  1
  H  H18  1  0.17918800  0.30190808  0.85737736  1
  H  H19  1  0.97634949  0.32541618  0.81366313  1
  H  H20  1  0.87244549  0.19105490  0.20081173  1
  H  H21  1  0.78154813  0.24064931  0.02238094  1
  H  H22  1  0.55321136  0.91469486  0.53199120  1
  H  H23  1  0.69578576  0.77877906  0.68888822  1
  H  H24  1  0.58789424  0.62240436  0.62665176  1
  H  H25  1  0.34245407  0.82817489  0.36943864  1
  H  H26  1  0.32578012  0.66794444  0.45475406  1
  H  H27  1  0.05302779  0.58549647  0.96868236  1
  H  H28  1  0.19577714  0.72088823  0.81104906  1
  H  H29  1  0.08776246  0.87735991  0.87268288  1
  H  H30  1  0.84199492  0.67233553  0.13084274  1
  H  H31  1  0.82542663  0.83226337  0.04494805  1
  N  N32  1  0.64358455  0.92470987  0.04617675  1
  N  N33  1  0.14417764  0.57521853  0.45358020  1
  In  In34  1  0.03497996  0.99273046  0.50834965  1
  In  In35  1  0.53491685  0.50718603  0.99177493  1
  Cl  Cl36  1  0.46348096  0.25617604  0.01980820  1
  Cl  Cl37  1  0.17723222  0.96812564  0.24171577  1
  Cl  Cl38  1  0.66619975  0.98569279  0.25973729  1
  Cl  Cl39  1  0.96319785  0.24364433  0.48024363  1
  Cl  Cl40  1  0.25992980  0.02507776  0.70625368  1
  Cl  Cl41  1  0.83031561  0.98793902  0.73065937  1
  Cl  Cl42  1  0.48966554  0.79933957  0.01741074  1
  Cl  Cl43  1  0.67729789  0.53175429  0.25817906  1
  Cl  Cl44  1  0.16701195  0.51423913  0.23999018  1
  Cl  Cl45  1  0.99002787  0.70038512  0.48246383  1
  Cl  Cl46  1  0.33040422  0.51181525  0.76948555  1
  Cl  Cl47  1  0.76001772  0.47522560  0.79359654  1
