# generated using pymatgen
data_H10RhC2N5Cl6
_symmetry_space_group_name_H-M   'P 1'
_cell_length_a   8.30507296
_cell_length_b   9.23896036
_cell_length_c   7.90161559
_cell_angle_alpha   97.71560652
_cell_angle_beta   89.91602693
_cell_angle_gamma   89.99028943
_symmetry_Int_Tables_number   1
_chemical_formula_structural   H10RhC2N5Cl6
_chemical_formula_sum   'H20 Rh2 C4 N10 Cl12'
_cell_volume   600.80320231
_cell_formula_units_Z   2
loop_
 _symmetry_equiv_pos_site_id
 _symmetry_equiv_pos_as_xyz
  1  'x, y, z'
loop_
 _atom_site_type_symbol
 _atom_site_label
 _atom_site_symmetry_multiplicity
 _atom_site_fract_x
 _atom_site_fract_y
 _atom_site_fract_z
 _atom_site_occupancy
  C  C0  1  0.53118267  0.25024548  0.46990663  1
  C  C1  1  0.03135512  0.24965062  0.03009091  1
  C  C2  1  0.51823767  0.81308334  0.53728863  1
  C  C3  1  0.01748240  0.68719025  0.96283886  1
  N  N4  1  0.55931805  0.19556958  0.61189681  1
  N  N5  1  0.38873600  0.26694216  0.40424962  1
  N  N6  1  0.05861884  0.30464951  0.88808432  1
  N  N7  1  0.88921667  0.23234775  0.09657818  1
  N  N8  1  0.61577605  0.74453952  0.62942844  1
  N  N9  1  0.40900199  0.75087090  0.43287229  1
  N  N10  1  0.11536549  0.75516813  0.87023301  1
  N  N11  1  0.90820575  0.74993334  0.06721272  1
  H  H12  1  0.63489907  0.28623657  0.40154731  1
  H  H13  1  0.67440811  0.19310095  0.65669492  1
  H  H14  1  0.46836196  0.17200461  0.69120695  1
  H  H15  1  0.38523500  0.29320875  0.28216494  1
  H  H16  1  0.28468752  0.23333421  0.45608910  1
  H  H17  1  0.13553162  0.21390985  0.09767020  1
  H  H18  1  0.17350331  0.30793953  0.84254193  1
  H  H19  1  0.96710318  0.32849179  0.80984941  1
  H  H20  1  0.88623910  0.20599885  0.21866120  1
  H  H21  1  0.78479633  0.26562477  0.04541363  1
  H  H22  1  0.53004014  0.93126356  0.54844960  1
  H  H23  1  0.69815793  0.80641672  0.70429346  1
  H  H24  1  0.61276871  0.63434507  0.63260770  1
  H  H25  1  0.33604602  0.81388572  0.36726515  1
  H  H26  1  0.39457903  0.64061787  0.41325120  1
  H  H27  1  0.02896611  0.56900490  0.95217110  1
  H  H28  1  0.19789275  0.69292800  0.79565848  1
  H  H29  1  0.11269538  0.86532906  0.86669166  1
  H  H30  1  0.83494393  0.68722927  0.13306430  1
  H  H31  1  0.89384596  0.86021824  0.08630932  1
  N  N32  1  0.59786447  0.91098378  0.02410566  1
  N  N33  1  0.09944200  0.58884725  0.47475322  1
  Rh  Rh34  1  0.01371834  0.98381226  0.50321508  1
  Rh  Rh35  1  0.51341908  0.51595731  0.99705354  1
  Cl  Cl36  1  0.46165733  0.26432227  0.01195880  1
  Cl  Cl37  1  0.17577822  0.97135128  0.25767409  1
  Cl  Cl38  1  0.66022235  0.97364619  0.23535472  1
  Cl  Cl39  1  0.96126596  0.23532534  0.48850101  1
  Cl  Cl40  1  0.23056294  0.01787702  0.68661024  1
  Cl  Cl41  1  0.84700398  0.00198419  0.74605620  1
  Cl  Cl42  1  0.47278048  0.76639280  0.01509940  1
  Cl  Cl43  1  0.67567093  0.52865065  0.24200992  1
  Cl  Cl44  1  0.16205195  0.52668187  0.26320084  1
  Cl  Cl45  1  0.97386744  0.73322729  0.48457407  1
  Cl  Cl46  1  0.34697965  0.49745130  0.75444516  1
  Cl  Cl47  1  0.73053634  0.48227331  0.81321084  1
