# generated using pymatgen
data_AsH10C2N5Cl6
_symmetry_space_group_name_H-M   'P 1'
_cell_length_a   8.08399986
_cell_length_b   9.76796210
_cell_length_c   7.90083228
_cell_angle_alpha   93.40199016
_cell_angle_beta   89.97656141
_cell_angle_gamma   89.99331314
_symmetry_Int_Tables_number   1
_chemical_formula_structural   AsH10C2N5Cl6
_chemical_formula_sum   'As2 H20 C4 N10 Cl12'
_cell_volume   622.78344855
_cell_formula_units_Z   2
loop_
 _symmetry_equiv_pos_site_id
 _symmetry_equiv_pos_as_xyz
  1  'x, y, z'
loop_
 _atom_site_type_symbol
 _atom_site_label
 _atom_site_symmetry_multiplicity
 _atom_site_fract_x
 _atom_site_fract_y
 _atom_site_fract_z
 _atom_site_occupancy
  C  C0  1  0.51337834  0.27818895  0.48330771  1
  C  C1  1  0.01414252  0.22216314  0.01721509  1
  C  C2  1  0.48860585  0.78670918  0.50622093  1
  C  C3  1  0.98941649  0.71291650  0.99352162  1
  N  N4  1  0.57068458  0.18982318  0.58804316  1
  N  N5  1  0.38688815  0.25662628  0.38242695  1
  N  N6  1  0.06907519  0.31086356  0.91163036  1
  N  N7  1  0.88766136  0.24249763  0.11853055  1
  N  N8  1  0.62394457  0.73692782  0.57094072  1
  N  N9  1  0.40920755  0.73339408  0.37414450  1
  N  N10  1  0.12448108  0.76308338  0.92863805  1
  N  N11  1  0.90905885  0.76659196  0.12484694  1
  H  H12  1  0.57905707  0.37531629  0.47773232  1
  H  H13  1  0.66974187  0.21477078  0.66280702  1
  H  H14  1  0.50848858  0.10226344  0.61036413  1
  H  H15  1  0.34748379  0.33368523  0.31036110  1
  H  H16  1  0.32670707  0.16382716  0.36463422  1
  H  H17  1  0.08182628  0.12598754  0.02323620  1
  H  H18  1  0.16806529  0.28693551  0.83623620  1
  H  H19  1  0.00422257  0.39697613  0.88846479  1
  H  H20  1  0.85011945  0.16537003  0.19141493  1
  H  H21  1  0.82595723  0.33464026  0.13606451  1
  H  H22  1  0.43570374  0.87891087  0.56917417  1
  H  H23  1  0.67479372  0.78596667  0.67591823  1
  H  H24  1  0.68409505  0.65407382  0.51464047  1
  H  H25  1  0.31498987  0.78915617  0.32478416  1
  H  H26  1  0.45331852  0.64808872  0.30747263  1
  H  H27  1  0.93754166  0.62005906  0.93131159  1
  H  H28  1  0.17644622  0.71329833  0.82469118  1
  H  H29  1  0.18388293  0.84645800  0.98448891  1
  H  H30  1  0.81503759  0.71067147  0.17432194  1
  H  H31  1  0.95229091  0.85240681  0.19105371  1
  N  N32  1  0.59998002  0.98520013  0.04393654  1
  N  N33  1  0.10027580  0.51529859  0.45631176  1
  As  As34  1  0.00300294  0.00287790  0.54558372  1
  As  As35  1  0.50239153  0.49714167  0.95536965  1
  Cl  Cl36  1  0.47790805  0.27173683  0.98560307  1
  Cl  Cl37  1  0.19177931  0.98442596  0.25255132  1
  Cl  Cl38  1  0.65543783  0.99693704  0.26137885  1
  Cl  Cl39  1  0.97833575  0.22834219  0.51476608  1
  Cl  Cl40  1  0.23618362  0.02687997  0.71300468  1
  Cl  Cl41  1  0.83076104  0.99362391  0.77741798  1
  Cl  Cl42  1  0.51705857  0.81975307  0.98905907  1
  Cl  Cl43  1  0.69222300  0.51522151  0.24711428  1
  Cl  Cl44  1  0.15569640  0.50270804  0.23879441  1
  Cl  Cl45  1  0.01683481  0.68066221  0.51016424  1
  Cl  Cl46  1  0.33033077  0.50669861  0.72332783  1
  Cl  Cl47  1  0.73550593  0.47390739  0.78708228  1
