# generated using pymatgen
data_GaH10C2N5Cl6
_symmetry_space_group_name_H-M   'P 1'
_cell_length_a   8.11907134
_cell_length_b   9.99040532
_cell_length_c   7.85535768
_cell_angle_alpha   90.81100021
_cell_angle_beta   90.17829526
_cell_angle_gamma   90.77531935
_symmetry_Int_Tables_number   1
_chemical_formula_structural   GaH10C2N5Cl6
_chemical_formula_sum   'Ga2 H20 C4 N10 Cl12'
_cell_volume   637.04452691
_cell_formula_units_Z   2
loop_
 _symmetry_equiv_pos_site_id
 _symmetry_equiv_pos_as_xyz
  1  'x, y, z'
loop_
 _atom_site_type_symbol
 _atom_site_label
 _atom_site_symmetry_multiplicity
 _atom_site_fract_x
 _atom_site_fract_y
 _atom_site_fract_z
 _atom_site_occupancy
  C  C0  1  0.50222541  0.28271004  0.50849193  1
  C  C1  1  0.03117574  0.24756230  0.03188024  1
  C  C2  1  0.47332832  0.76329796  0.53993508  1
  C  C3  1  0.00149497  0.69939839  0.99336715  1
  N  N4  1  0.59083735  0.20110665  0.59968382  1
  N  N5  1  0.38171372  0.24612133  0.40697437  1
  N  N6  1  0.07707327  0.29711224  0.88521309  1
  N  N7  1  0.87837450  0.23563944  0.08367119  1
  N  N8  1  0.62878771  0.75954419  0.58633567  1
  N  N9  1  0.41640571  0.73607547  0.38755495  1
  N  N10  1  0.11389888  0.74595429  0.89014497  1
  N  N11  1  0.92210931  0.77047898  0.10718579  1
  H  H12  1  0.53240118  0.38920776  0.51905657  1
  H  H13  1  0.68349676  0.23953776  0.67311986  1
  H  H14  1  0.57064682  0.10050181  0.60078877  1
  H  H15  1  0.31812392  0.31850712  0.34336294  1
  H  H16  1  0.34909061  0.14815019  0.38343628  1
  H  H17  1  0.12718381  0.20951438  0.11492944  1
  H  H18  1  0.19957617  0.30249468  0.85744326  1
  H  H19  1  0.99671521  0.33881686  0.80166786  1
  H  H20  1  0.85459096  0.19528588  0.19980628  1
  H  H21  1  0.77966779  0.25865542  0.00995369  1
  H  H22  1  0.38535009  0.79443129  0.63645403  1
  H  H23  1  0.65970201  0.78517128  0.70834240  1
  H  H24  1  0.72255382  0.73411625  0.50669193  1
  H  H25  1  0.29344492  0.74489782  0.36471898  1
  H  H26  1  0.48950874  0.71277341  0.28627216  1
  H  H27  1  0.96842330  0.59368123  0.98172032  1
  H  H28  1  0.16270431  0.68197257  0.80063723  1
  H  H29  1  0.16068728  0.84135656  0.90018949  1
  H  H30  1  0.84219209  0.72190677  0.18566183  1
  H  H31  1  0.94446625  0.86979201  0.12728104  1
  N  N32  1  0.45721486  0.00340088  0.08321565  1
  N  N33  1  0.07491383  0.51013343  0.46191474  1
  Ga  Ga34  1  0.01728286  0.00780000  0.61651693  1
  Ga  Ga35  1  0.59015418  0.50317575  0.99529393  1
  Cl  Cl36  1  0.46250068  0.30718105  0.99589497  1
  Cl  Cl37  1  0.26477732  0.98246904  0.19423019  1
  Cl  Cl38  1  0.61787013  0.99328246  0.23863520  1
  Cl  Cl39  1  0.97812545  0.19070667  0.46980223  1
  Cl  Cl40  1  0.26534533  0.02571624  0.73691758  1
  Cl  Cl41  1  0.82192554  0.99696161  0.81432042  1
  Cl  Cl42  1  0.48462728  0.70363042  0.97409309  1
  Cl  Cl43  1  0.72237557  0.51552765  0.24711370  1
  Cl  Cl44  1  0.18154992  0.49085254  0.26472878  1
  Cl  Cl45  1  0.01340327  0.81165226  0.48351297  1
  Cl  Cl46  1  0.22645144  0.51333415  0.62962518  1
  Cl  Cl47  1  0.76355071  0.47846650  0.77231656  1
