# generated using pymatgen
data_CuH10C2N5Cl6
_symmetry_space_group_name_H-M   'P 1'
_cell_length_a   8.19606136
_cell_length_b   9.69701248
_cell_length_c   8.06681790
_cell_angle_alpha   91.94462540
_cell_angle_beta   89.97096342
_cell_angle_gamma   89.96299536
_symmetry_Int_Tables_number   1
_chemical_formula_structural   CuH10C2N5Cl6
_chemical_formula_sum   'Cu2 H20 C4 N10 Cl12'
_cell_volume   640.75952515
_cell_formula_units_Z   2
loop_
 _symmetry_equiv_pos_site_id
 _symmetry_equiv_pos_as_xyz
  1  'x, y, z'
loop_
 _atom_site_type_symbol
 _atom_site_label
 _atom_site_symmetry_multiplicity
 _atom_site_fract_x
 _atom_site_fract_y
 _atom_site_fract_z
 _atom_site_occupancy
  C  C0  1  0.51052027  0.30258328  0.48614823  1
  C  C1  1  0.01123780  0.19730316  0.01359568  1
  C  C2  1  0.50985573  0.78019097  0.50843679  1
  C  C3  1  0.00939856  0.72034485  0.99086095  1
  N  N4  1  0.51247325  0.25848919  0.63755301  1
  N  N5  1  0.42827766  0.24712871  0.36096085  1
  N  N6  1  0.01229475  0.24167424  0.86230135  1
  N  N7  1  0.92922388  0.25232681  0.13933946  1
  N  N8  1  0.63702323  0.72221531  0.57581630  1
  N  N9  1  0.44807827  0.74240742  0.36395202  1
  N  N10  1  0.13645430  0.77881985  0.92391810  1
  N  N11  1  0.94823261  0.75658106  0.13621843  1
  H  H12  1  0.58473172  0.39276486  0.45998732  1
  H  H13  1  0.58571586  0.31055362  0.72136648  1
  H  H14  1  0.44284511  0.17610866  0.67314346  1
  H  H15  1  0.42782471  0.29454915  0.24934418  1
  H  H16  1  0.35947435  0.15905012  0.36760056  1
  H  H17  1  0.08599558  0.10723237  0.03910615  1
  H  H18  1  0.08542464  0.18987736  0.77798970  1
  H  H19  1  0.94218480  0.32397630  0.82720385  1
  H  H20  1  0.92935360  0.20469121  0.25079233  1
  H  H21  1  0.85992935  0.34027931  0.13327717  1
  H  H22  1  0.45024468  0.86519416  0.57781923  1
  H  H23  1  0.67018302  0.75123562  0.69334282  1
  H  H24  1  0.70035611  0.64386971  0.51756941  1
  H  H25  1  0.35949821  0.80333720  0.31371937  1
  H  H26  1  0.50273808  0.66682756  0.29162589  1
  H  H27  1  0.94942328  0.63621890  0.92040922  1
  H  H28  1  0.16894967  0.75132990  0.80565984  1
  H  H29  1  0.20011942  0.85628690  0.98333430  1
  H  H30  1  0.85964055  0.69536420  0.18589672  1
  H  H31  1  0.00302881  0.83144010  0.20935110  1
  N  N32  1  0.56589017  0.96881590  0.99503699  1
  N  N33  1  0.06578828  0.53110295  0.50584385  1
  Cu  Cu34  1  0.08202040  0.98417135  0.50445363  1
  Cu  Cu35  1  0.58192990  0.51585930  0.99546113  1
  Cl  Cl36  1  0.34200263  0.41748643  0.01239716  1
  Cl  Cl37  1  0.22205185  0.98382174  0.24809116  1
  Cl  Cl38  1  0.66762575  0.99709608  0.18010871  1
  Cl  Cl39  1  0.84207632  0.08270026  0.48814051  1
  Cl  Cl40  1  0.26261302  0.02430312  0.71059235  1
  Cl  Cl41  1  0.69637640  0.00670535  0.83162138  1
  Cl  Cl42  1  0.53152342  0.74434129  0.96861601  1
  Cl  Cl43  1  0.72198635  0.51549986  0.25176908  1
  Cl  Cl44  1  0.16733608  0.50265309  0.32059629  1
  Cl  Cl45  1  0.03147846  0.75591374  0.53181305  1
  Cl  Cl46  1  0.19629225  0.49334949  0.66903341  1
  Cl  Cl47  1  0.76229621  0.47599095  0.78888975  1
