# generated using pymatgen
data_PH10C2N5Cl6
_symmetry_space_group_name_H-M   'P 1'
_cell_length_a   8.03420218
_cell_length_b   9.83709861
_cell_length_c   7.86052118
_cell_angle_alpha   92.97365746
_cell_angle_beta   89.96015579
_cell_angle_gamma   89.96058029
_symmetry_Int_Tables_number   1
_chemical_formula_structural   PH10C2N5Cl6
_chemical_formula_sum   'P2 H20 C4 N10 Cl12'
_cell_volume   620.40562769
_cell_formula_units_Z   2
loop_
 _symmetry_equiv_pos_site_id
 _symmetry_equiv_pos_as_xyz
  1  'x, y, z'
loop_
 _atom_site_type_symbol
 _atom_site_label
 _atom_site_symmetry_multiplicity
 _atom_site_fract_x
 _atom_site_fract_y
 _atom_site_fract_z
 _atom_site_occupancy
  C  C0  1  0.51457237  0.26786868  0.46932692  1
  C  C1  1  0.01586856  0.23252161  0.03106762  1
  C  C2  1  0.48766939  0.78836447  0.49442278  1
  C  C3  1  0.98849812  0.71117998  0.00517774  1
  N  N4  1  0.56851276  0.17818737  0.57530444  1
  N  N5  1  0.38940586  0.24865344  0.36528221  1
  N  N6  1  0.06694134  0.32247557  0.92406711  1
  N  N7  1  0.89102584  0.25053716  0.13599983  1
  N  N8  1  0.62504067  0.73939890  0.55883815  1
  N  N9  1  0.41435885  0.74138754  0.35534810  1
  N  N10  1  0.12572190  0.76047176  0.94087279  1
  N  N11  1  0.91405727  0.75855872  0.14356990  1
  H  H12  1  0.58204182  0.36406093  0.46526066  1
  H  H13  1  0.66472766  0.20191811  0.65513234  1
  H  H14  1  0.50416292  0.09162792  0.59529774  1
  H  H15  1  0.35063285  0.32876232  0.29728770  1
  H  H16  1  0.32619191  0.15731408  0.34594192  1
  H  H17  1  0.08542728  0.13724414  0.03526626  1
  H  H18  1  0.16290668  0.29971798  0.84334811  1
  H  H19  1  0.99984666  0.40763261  0.90355394  1
  H  H20  1  0.85477737  0.17041688  0.20516293  1
  H  H21  1  0.82619228  0.34121065  0.15533254  1
  H  H22  1  0.42863355  0.87454640  0.56346101  1
  H  H23  1  0.66538580  0.77751027  0.67458839  1
  H  H24  1  0.68691618  0.65918251  0.49870788  1
  H  H25  1  0.31907805  0.79839577  0.30784316  1
  H  H26  1  0.46367463  0.66016926  0.28510946  1
  H  H27  1  0.93054951  0.62440182  0.93662836  1
  H  H28  1  0.16728741  0.72167257  0.82585160  1
  H  H29  1  0.18678449  0.84110445  0.00077953  1
  H  H30  1  0.81897626  0.70139849  0.19112061  1
  H  H31  1  0.96244591  0.84023583  0.21348209  1
  N  N32  1  0.58593372  0.99124268  0.01571690  1
  N  N33  1  0.08605586  0.50925534  0.48436276  1
  P  P34  1  0.00453449  0.01181489  0.58414290  1
  P  P35  1  0.50359819  0.48828481  0.91697265  1
  Cl  Cl36  1  0.48209506  0.28333924  0.96761459  1
  Cl  Cl37  1  0.18768118  0.98417573  0.24829711  1
  Cl  Cl38  1  0.65541905  0.00003529  0.23052948  1
  Cl  Cl39  1  0.98270467  0.21678761  0.53289290  1
  Cl  Cl40  1  0.22884507  0.02733807  0.72762658  1
  Cl  Cl41  1  0.83546792  0.00575452  0.79348321  1
  Cl  Cl42  1  0.52627736  0.81971318  0.96280423  1
  Cl  Cl43  1  0.68846644  0.51539822  0.25118028  1
  Cl  Cl44  1  0.15607489  0.49997259  0.26950057  1
  Cl  Cl45  1  0.02597602  0.68079467  0.53644375  1
  Cl  Cl46  1  0.33477482  0.49474402  0.70740872  1
  Cl  Cl47  1  0.72780244  0.47328390  0.77269434  1
