# generated using pymatgen
data_SiH10C2N5Cl6
_symmetry_space_group_name_H-M   'P 1'
_cell_length_a   6.69831763
_cell_length_b   10.47700052
_cell_length_c   8.73988143
_cell_angle_alpha   92.91492338
_cell_angle_beta   87.48349788
_cell_angle_gamma   89.50858985
_symmetry_Int_Tables_number   1
_chemical_formula_structural   SiH10C2N5Cl6
_chemical_formula_sum   'Si2 H20 C4 N10 Cl12'
_cell_volume   611.92958290
_cell_formula_units_Z   2
loop_
 _symmetry_equiv_pos_site_id
 _symmetry_equiv_pos_as_xyz
  1  'x, y, z'
loop_
 _atom_site_type_symbol
 _atom_site_label
 _atom_site_symmetry_multiplicity
 _atom_site_fract_x
 _atom_site_fract_y
 _atom_site_fract_z
 _atom_site_occupancy
  C  C0  1  0.53384432  0.28522046  0.48787557  1
  C  C1  1  0.05728122  0.20831717  0.03973296  1
  C  C2  1  0.53861162  0.80032718  0.48604766  1
  C  C3  1  0.00981335  0.70115642  0.03140638  1
  N  N4  1  0.48304402  0.20613671  0.59383578  1
  N  N5  1  0.52698428  0.25866706  0.33976559  1
  N  N6  1  0.99477282  0.23314584  0.90448949  1
  N  N7  1  0.01933585  0.27994361  0.16540169  1
  N  N8  1  0.48698175  0.72138333  0.59229891  1
  N  N9  1  0.52116404  0.77803896  0.33841666  1
  N  N10  1  0.00503573  0.76792081  0.90802302  1
  N  N11  1  0.99288083  0.74519153  0.17361681  1
  H  H12  1  0.58738839  0.37921493  0.52540523  1
  H  H13  1  0.49016766  0.23316786  0.70760313  1
  H  H14  1  0.42114107  0.11912023  0.56965063  1
  H  H15  1  0.57141857  0.32577259  0.26470192  1
  H  H16  1  0.48932705  0.17053526  0.29516050  1
  H  H17  1  0.14974772  0.12268045  0.04765900  1
  H  H18  1  0.03516176  0.17259187  0.81299196  1
  H  H19  1  0.91203610  0.31225466  0.88394097  1
  H  H20  1  0.06710621  0.25301735  0.26843434  1
  H  H21  1  0.93060749  0.36016629  0.16649874  1
  H  H22  1  0.60410454  0.89120077  0.52363563  1
  H  H23  1  0.50291577  0.74791990  0.70511062  1
  H  H24  1  0.41822771  0.63685332  0.56686511  1
  H  H25  1  0.56529562  0.84617632  0.26412381  1
  H  H26  1  0.46058834  0.69564738  0.29429470  1
  H  H27  1  0.03054941  0.59826588  0.01116321  1
  H  H28  1  0.02043132  0.72240033  0.80189037  1
  H  H29  1  0.97634099  0.86359029  0.91198595  1
  H  H30  1  0.98402690  0.67719218  0.26518636  1
  H  H31  1  0.97826718  0.84110702  0.19818239  1
  N  N32  1  0.51454967  0.99492349  0.98410039  1
  N  N33  1  0.98470156  0.58176160  0.40398536  1
  Si  Si34  1  0.96410108  0.03684829  0.50419964  1
  Si  Si35  1  0.52707662  0.49468864  0.93257266  1
  Cl  Cl36  1  0.49517593  0.29114014  0.96533179  1
  Cl  Cl37  1  0.19574452  0.01318574  0.31470413  1
  Cl  Cl38  1  0.68968881  0.00857882  0.13474847  1
  Cl  Cl39  1  0.99542025  0.24548918  0.53313043  1
  Cl  Cl40  1  0.16870792  0.99095094  0.68814478  1
  Cl  Cl41  1  0.66074599  0.98301704  0.80977659  1
  Cl  Cl42  1  0.47967820  0.69652302  0.97411765  1
  Cl  Cl43  1  0.68030903  0.50200822  0.15666502  1
  Cl  Cl44  1  0.23124051  0.51791781  0.36002999  1
  Cl  Cl45  1  0.00555237  0.71367979  0.53631302  1
  Cl  Cl46  1  0.27522744  0.48432334  0.78517598  1
  Cl  Cl47  1  0.76749981  0.49070293  0.77171372  1
