# generated using pymatgen
data_MgH10PbC2(N2Cl3)2
_symmetry_space_group_name_H-M   'P 1'
_cell_length_a   7.76262440
_cell_length_b   10.54913558
_cell_length_c   7.74897822
_cell_angle_alpha   89.82949661
_cell_angle_beta   89.99876877
_cell_angle_gamma   89.99979909
_symmetry_Int_Tables_number   1
_chemical_formula_structural   MgH10PbC2(N2Cl3)2
_chemical_formula_sum   'Mg2 H20 Pb2 C4 N8 Cl12'
_cell_volume   634.55309091
_cell_formula_units_Z   2
loop_
 _symmetry_equiv_pos_site_id
 _symmetry_equiv_pos_as_xyz
  1  'x, y, z'
loop_
 _atom_site_type_symbol
 _atom_site_label
 _atom_site_symmetry_multiplicity
 _atom_site_fract_x
 _atom_site_fract_y
 _atom_site_fract_z
 _atom_site_occupancy
  C  C0  1  0.49481802  0.29329797  0.49627222  1
  C  C1  1  0.99485784  0.20670430  0.00373064  1
  C  C2  1  0.50492669  0.79328946  0.50313697  1
  C  C3  1  0.00490925  0.70671637  0.99681918  1
  N  N4  1  0.60413002  0.23683798  0.59937995  1
  N  N5  1  0.39000837  0.23676285  0.38923014  1
  N  N6  1  0.10417078  0.26314322  0.90067537  1
  N  N7  1  0.89002346  0.26322809  0.11079001  1
  N  N8  1  0.60909629  0.73670858  0.61133115  1
  N  N9  1  0.39737999  0.73688245  0.39876200  1
  N  N10  1  0.10903445  0.76329947  0.88868706  1
  N  N11  1  0.89728509  0.76312167  0.10122957  1
  H  H12  1  0.49038881  0.39628549  0.50015103  1
  H  H13  1  0.68292021  0.29142611  0.67404677  1
  H  H14  1  0.61186921  0.14096273  0.61431683  1
  H  H15  1  0.30703719  0.29164927  0.31901153  1
  H  H16  1  0.38849846  0.14138845  0.36777929  1
  H  H17  1  0.99039172  0.10370584  0.99984178  1
  H  H18  1  0.18297872  0.20856115  0.82599180  1
  H  H19  1  0.11195312  0.35903544  0.88575113  1
  H  H20  1  0.80703520  0.20834851  0.18097902  1
  H  H21  1  0.88853276  0.35860604  0.13225122  1
  H  H22  1  0.50849687  0.89633003  0.49955001  1
  H  H23  1  0.68324065  0.79174981  0.69012320  1
  H  H24  1  0.62497272  0.64085525  0.61896684  1
  H  H25  1  0.32605929  0.79135054  0.31624333  1
  H  H26  1  0.37627488  0.64146474  0.39786657  1
  H  H27  1  0.00846484  0.60367588  0.00043718  1
  H  H28  1  0.18322676  0.70827009  0.80988539  1
  H  H29  1  0.12492127  0.85916518  0.88104226  1
  H  H30  1  0.82598779  0.70864150  0.18372138  1
  H  H31  1  0.87618509  0.85852746  0.10210510  1
  Mg  Mg32  1  0.49962579  0.00001267  0.99764257  1
  Mg  Mg33  1  0.99963447  0.49999913  0.50235694  1
  Pb  Pb34  1  0.00142937  0.00002200  0.49705502  1
  Pb  Pb35  1  0.50143484  0.49999124  0.00293831  1
  Cl  Cl36  1  0.49951700  0.23062906  0.99561457  1
  Cl  Cl37  1  0.23616135  0.98672330  0.20469925  1
  Cl  Cl38  1  0.70585604  0.01223626  0.26204175  1
  Cl  Cl39  1  0.99949407  0.26938136  0.50442135  1
  Cl  Cl40  1  0.29265994  0.01304689  0.73438822  1
  Cl  Cl41  1  0.76350694  0.98812134  0.79114967  1
  Cl  Cl42  1  0.50121359  0.76940766  0.00287670  1
  Cl  Cl43  1  0.73615159  0.51327951  0.29530980  1
  Cl  Cl44  1  0.20585313  0.48776488  0.23795177  1
  Cl  Cl45  1  0.00125472  0.73060414  0.49708148  1
  Cl  Cl46  1  0.26350194  0.51189094  0.70886125  1
  Cl  Cl47  1  0.79264872  0.48696066  0.76561019  1
