# generated using pymatgen
data_MgTlH10C2(N2Cl3)2
_symmetry_space_group_name_H-M   'P 1'
_cell_length_a   7.76881893
_cell_length_b   10.71995106
_cell_length_c   7.74908145
_cell_angle_alpha   89.93615841
_cell_angle_beta   90.01906152
_cell_angle_gamma   90.04557020
_symmetry_Int_Tables_number   1
_chemical_formula_structural   MgTlH10C2(N2Cl3)2
_chemical_formula_sum   'Mg2 Tl2 H20 C4 N8 Cl12'
_cell_volume   645.35339266
_cell_formula_units_Z   2
loop_
 _symmetry_equiv_pos_site_id
 _symmetry_equiv_pos_as_xyz
  1  'x, y, z'
loop_
 _atom_site_type_symbol
 _atom_site_label
 _atom_site_symmetry_multiplicity
 _atom_site_fract_x
 _atom_site_fract_y
 _atom_site_fract_z
 _atom_site_occupancy
  C  C0  1  0.49800782  0.29563294  0.49915377  1
  C  C1  1  0.99745877  0.21308445  0.00027339  1
  C  C2  1  0.50228363  0.78670615  0.50114693  1
  C  C3  1  0.00203138  0.70465522  0.99872125  1
  N  N4  1  0.60735591  0.24187712  0.60386716  1
  N  N5  1  0.39400704  0.23829458  0.39253710  1
  N  N6  1  0.11003626  0.26682077  0.89872633  1
  N  N7  1  0.89067133  0.27049446  0.10382193  1
  N  N8  1  0.60293041  0.72935628  0.61094429  1
  N  N9  1  0.39586355  0.73290757  0.39322025  1
  N  N10  1  0.10532365  0.76252696  0.89193352  1
  N  N11  1  0.89221000  0.75787843  0.10331766  1
  H  H12  1  0.49260319  0.39712914  0.50098133  1
  H  H13  1  0.68647955  0.29740396  0.67642324  1
  H  H14  1  0.62040350  0.14757187  0.61644563  1
  H  H15  1  0.31013826  0.29101625  0.32171794  1
  H  H16  1  0.38927481  0.14383610  0.37782551  1
  H  H17  1  0.99190864  0.11150754  0.99829579  1
  H  H18  1  0.18764557  0.21130566  0.82527396  1
  H  H19  1  0.11858467  0.36105124  0.88101408  1
  H  H20  1  0.80830989  0.21755949  0.17573160  1
  H  H21  1  0.89178486  0.36447204  0.12508443  1
  H  H22  1  0.50783342  0.88829831  0.49927229  1
  H  H23  1  0.67875927  0.78238767  0.68951375  1
  H  H24  1  0.61765111  0.63483317  0.61616544  1
  H  H25  1  0.32511868  0.78832025  0.31277794  1
  H  H26  1  0.37162330  0.63923299  0.39135243  1
  H  H27  1  0.00816769  0.60318508  0.00083253  1
  H  H28  1  0.18070070  0.70989301  0.81218392  1
  H  H29  1  0.11396635  0.85717657  0.88168390  1
  H  H30  1  0.82331349  0.70235393  0.18577792  1
  H  H31  1  0.87345793  0.85194315  0.11061111  1
  Mg  Mg32  1  0.49800155  0.99997230  0.00399348  1
  Mg  Mg33  1  0.00032365  0.49992365  0.50325867  1
  Tl  Tl34  1  0.00111034  0.99996352  0.49899495  1
  Tl  Tl35  1  0.50169274  0.49992157  0.00414001  1
  Cl  Cl36  1  0.50106290  0.21218635  0.99677233  1
  Cl  Cl37  1  0.22343063  0.98752581  0.22228738  1
  Cl  Cl38  1  0.72636985  0.01291077  0.27327615  1
  Cl  Cl39  1  0.99990356  0.23929043  0.50017214  1
  Cl  Cl40  1  0.27497294  0.01282522  0.72034504  1
  Cl  Cl41  1  0.77652336  0.98664118  0.77050886  1
  Cl  Cl42  1  0.49973101  0.78772569  -0.00001361  1
  Cl  Cl43  1  0.75114877  0.51770031  0.31617098  1
  Cl  Cl44  1  0.18728610  0.48184430  0.25346538  1
  Cl  Cl45  1  0.99889988  0.76063685  0.49698964  1
  Cl  Cl46  1  0.24960971  0.51885896  0.69028799  1
  Cl  Cl47  1  0.81404770  0.48142376  0.75282704  1
