# generated using pymatgen
data_MgHgH10C2(N2Cl3)2
_symmetry_space_group_name_H-M   'P 1'
_cell_length_a   7.80370092
_cell_length_b   10.39835995
_cell_length_c   7.78972953
_cell_angle_alpha   89.92600153
_cell_angle_beta   90.00146438
_cell_angle_gamma   89.99668077
_symmetry_Int_Tables_number   1
_chemical_formula_structural   MgHgH10C2(N2Cl3)2
_chemical_formula_sum   'Mg2 Hg2 H20 C4 N8 Cl12'
_cell_volume   632.10245826
_cell_formula_units_Z   2
loop_
 _symmetry_equiv_pos_site_id
 _symmetry_equiv_pos_as_xyz
  1  'x, y, z'
loop_
 _atom_site_type_symbol
 _atom_site_label
 _atom_site_symmetry_multiplicity
 _atom_site_fract_x
 _atom_site_fract_y
 _atom_site_fract_z
 _atom_site_occupancy
  C  C0  1  0.49666375  0.29278206  0.49612181  1
  C  C1  1  0.99667809  0.20722291  0.00389680  1
  C  C2  1  0.50332074  0.79267871  0.50351993  1
  C  C3  1  0.00328036  0.70732309  0.99647963  1
  N  N4  1  0.60644306  0.23636524  0.59842791  1
  N  N5  1  0.39012875  0.23509100  0.39186549  1
  N  N6  1  0.10649584  0.26364443  0.90158091  1
  N  N7  1  0.89016958  0.26490475  0.10814399  1
  N  N8  1  0.60576355  0.73489169  0.61194127  1
  N  N9  1  0.39777074  0.73636520  0.39693302  1
  N  N10  1  0.10573245  0.76512041  0.88803653  1
  N  N11  1  0.89774005  0.76362521  0.10304150  1
  H  H12  1  0.49344344  0.39744052  0.49793653  1
  H  H13  1  0.68517363  0.29325515  0.67092532  1
  H  H14  1  0.61515369  0.13914278  0.61437264  1
  H  H15  1  0.30841879  0.29135385  0.32163939  1
  H  H16  1  0.38617346  0.13802292  0.37283495  1
  H  H17  1  0.99345416  0.10256505  0.00204241  1
  H  H18  1  0.18519111  0.20674718  0.82909507  1
  H  H19  1  0.11519683  0.36084802  0.88568020  1
  H  H20  1  0.80843678  0.20865889  0.17836713  1
  H  H21  1  0.88621496  0.36199949  0.12720582  1
  H  H22  1  0.50629829  0.89734254  0.50187227  1
  H  H23  1  0.67875365  0.79126533  0.69089508  1
  H  H24  1  0.62131664  0.63757735  0.61950321  1
  H  H25  1  0.32755044  0.79318382  0.31588669  1
  H  H26  1  0.37815103  0.63938100  0.39210543  1
  H  H27  1  0.00629409  0.60265715  0.99811081  1
  H  H28  1  0.17872115  0.70875766  0.80910929  1
  H  H29  1  0.12125119  0.86243293  0.88050228  1
  H  H30  1  0.82752304  0.70679758  0.18410145  1
  H  H31  1  0.87808997  0.86060801  0.10788906  1
  Mg  Mg32  1  0.49974647  0.99988201  0.99807328  1
  Mg  Mg33  1  0.99974540  0.50011566  0.50192918  1
  Hg  Hg34  1  0.00199285  0.99995056  0.49723259  1
  Hg  Hg35  1  0.50202194  0.50005118  0.00274703  1
  Cl  Cl36  1  0.49984647  0.27394829  0.99626974  1
  Cl  Cl37  1  0.25167808  0.98251353  0.18838016  1
  Cl  Cl38  1  0.68927879  0.01569125  0.24655691  1
  Cl  Cl39  1  0.99982458  0.22605389  0.50377470  1
  Cl  Cl40  1  0.30979127  0.01766894  0.75031111  1
  Cl  Cl41  1  0.74754770  0.98428216  0.80816612  1
  Cl  Cl42  1  0.49960413  0.72623779  0.00401293  1
  Cl  Cl43  1  0.75166405  0.51748299  0.31162684  1
  Cl  Cl44  1  0.18927641  0.48432227  0.25345391  1
  Cl  Cl45  1  0.99967015  0.77376320  0.49596156  1
  Cl  Cl46  1  0.24754043  0.51572483  0.69184988  1
  Cl  Cl47  1  0.80979730  0.48232251  0.74969497  1
