# generated using pymatgen
data_ScAgH12C2(I3N)2
_symmetry_space_group_name_H-M   'P 1'
_cell_length_a   8.26835695
_cell_length_b   11.90408666
_cell_length_c   8.16718351
_cell_angle_alpha   88.34175695
_cell_angle_beta   90.02607897
_cell_angle_gamma   90.00770267
_symmetry_Int_Tables_number   1
_chemical_formula_structural   ScAgH12C2(I3N)2
_chemical_formula_sum   'Sc2 Ag2 H24 C4 I12 N4'
_cell_volume   803.53657349
_cell_formula_units_Z   2
loop_
 _symmetry_equiv_pos_site_id
 _symmetry_equiv_pos_as_xyz
  1  'x, y, z'
loop_
 _atom_site_type_symbol
 _atom_site_label
 _atom_site_symmetry_multiplicity
 _atom_site_fract_x
 _atom_site_fract_y
 _atom_site_fract_z
 _atom_site_occupancy
  C  C0  1  0.41675860  0.24700795  0.42079068  1
  C  C1  1  0.91715397  0.25286060  0.07914180  1
  C  C2  1  0.58323710  0.75299462  0.57922165  1
  C  C3  1  0.08285413  0.74714289  0.92087128  1
  N  N4  1  0.56166063  0.24579286  0.52742604  1
  N  N5  1  0.06177947  0.25404306  0.97225243  1
  N  N6  1  0.43833463  0.75421006  0.47258675  1
  N  N7  1  0.93822762  0.74595923  0.02775852  1
  H  H8  1  0.45629301  0.25060080  0.29289953  1
  H  H9  1  0.34728053  0.17023493  0.44528368  1
  H  H10  1  0.34447840  0.32109162  0.44732626  1
  H  H11  1  0.63285547  0.17625555  0.50368152  1
  H  H12  1  0.63143618  0.31711525  0.50343175  1
  H  H13  1  0.53225303  0.24330774  0.65188184  1
  H  H14  1  0.95704474  0.24929367  0.20695440  1
  H  H15  1  0.84476008  0.17878588  0.05276655  1
  H  H16  1  0.84766440  0.32964852  0.05474298  1
  H  H17  1  0.13153283  0.18269345  0.99613870  1
  H  H18  1  0.13310973  0.32354948  0.99583843  1
  H  H19  1  0.03205776  0.25651853  0.84783624  1
  H  H20  1  0.54370333  0.74940216  0.70711299  1
  H  H21  1  0.65551681  0.67891069  0.55268584  1
  H  H22  1  0.65271551  0.82976734  0.55472811  1
  H  H23  1  0.36714015  0.82374755  0.49633160  1
  H  H24  1  0.36855878  0.68288795  0.49658085  1
  H  H25  1  0.46774203  0.75669537  0.34813107  1
  H  H26  1  0.04296369  0.75071164  0.79305809  1
  H  H27  1  0.15524691  0.82121775  0.94724829  1
  H  H28  1  0.15234448  0.67035528  0.94526776  1
  H  H29  1  0.86847455  0.81730835  0.00387455  1
  H  H30  1  0.86689856  0.67645232  0.00417148  1
  H  H31  1  0.96794921  0.74348209  0.15217628  1
  Sc  Sc32  1  0.49999969  0.00000212  0.00000539  1
  Sc  Sc33  1  0.00000009  0.50000314  0.50000521  1
  Ag  Ag34  1  0.00000027  0.00001533  0.50000013  1
  Ag  Ag35  1  0.49999778  0.50001066  0.00000217  1
  I  I36  1  0.49149029  0.24173733  0.95283983  1
  I  I37  1  0.20089044  0.00723244  0.18479444  1
  I  I38  1  0.68686929  0.01241576  0.29934306  1
  I  I39  1  0.99132234  0.25824890  0.54703655  1
  I  I40  1  0.31312501  0.98758550  0.70067230  1
  I  I41  1  0.79910513  0.99276561  0.81521805  1
  I  I42  1  0.50851533  0.75826390  0.04717667  1
  I  I43  1  0.70070496  0.49272991  0.31510740  1
  I  I44  1  0.18664915  0.48758540  0.20076633  1
  I  I45  1  0.00867373  0.74175300  0.45298006  1
  I  I46  1  0.29929908  0.50726817  0.68490360  1
  I  I47  1  0.81335486  0.51241595  0.79924747  1
