# generated using pymatgen
data_MgH10PtC2(N2Cl3)2
_symmetry_space_group_name_H-M   'P 1'
_cell_length_a   7.28139508
_cell_length_b   10.62094527
_cell_length_c   8.24777029
_cell_angle_alpha   89.60460910
_cell_angle_beta   90.00318192
_cell_angle_gamma   89.99974876
_symmetry_Int_Tables_number   1
_chemical_formula_structural   MgH10PtC2(N2Cl3)2
_chemical_formula_sum   'Mg2 H20 Pt2 C4 N8 Cl12'
_cell_volume   637.82858969
_cell_formula_units_Z   2
loop_
 _symmetry_equiv_pos_site_id
 _symmetry_equiv_pos_as_xyz
  1  'x, y, z'
loop_
 _atom_site_type_symbol
 _atom_site_label
 _atom_site_symmetry_multiplicity
 _atom_site_fract_x
 _atom_site_fract_y
 _atom_site_fract_z
 _atom_site_occupancy
  C  C0  1  0.49335716  0.28834049  0.48896181  1
  C  C1  1  0.99352215  0.21167762  0.01097702  1
  C  C2  1  0.51024211  0.79249287  0.52638439  1
  C  C3  1  0.01009955  0.70746987  0.97365093  1
  N  N4  1  0.55867612  0.24321199  0.62485373  1
  N  N5  1  0.39362626  0.22516054  0.38424764  1
  N  N6  1  0.05907214  0.25694568  0.87525949  1
  N  N7  1  0.89393911  0.27481366  0.11583308  1
  N  N8  1  0.59566994  0.73152803  0.64240087  1
  N  N9  1  0.44298488  0.74323613  0.39371569  1
  N  N10  1  0.09517315  0.76842406  0.85742654  1
  N  N11  1  0.94271750  0.75679627  0.10621487  1
  H  H12  1  0.52654539  0.38597033  0.45866117  1
  H  H13  1  0.63248276  0.30202819  0.69846556  1
  H  H14  1  0.54476832  0.15141272  0.66024524  1
  H  H15  1  0.35657704  0.26689705  0.27744151  1
  H  H16  1  0.35054038  0.13489172  0.40474878  1
  H  H17  1  0.02640013  0.11394972  0.04100374  1
  H  H18  1  0.13276900  0.19814138  0.80155834  1
  H  H19  1  0.04547680  0.34881594  0.84006871  1
  H  H20  1  0.85652028  0.23288401  0.22240580  1
  H  H21  1  0.85102641  0.36514539  0.09552557  1
  H  H22  1  0.49160344  0.89332592  0.54293682  1
  H  H23  1  0.64262659  0.78101844  0.73974047  1
  H  H24  1  0.61870931  0.63681891  0.64123200  1
  H  H25  1  0.37739900  0.79988376  0.31112986  1
  H  H26  1  0.46103938  0.65129235  0.36393802  1
  H  H27  1  0.99189761  0.60657221  0.95737913  1
  H  H28  1  0.14229457  0.71886613  0.76020855  1
  H  H29  1  0.11780412  0.86318195  0.85832243  1
  H  H30  1  0.87742904  0.70014314  0.18897245  1
  H  H31  1  0.96036782  0.84882744  0.13573319  1
  Mg  Mg32  1  0.56588831  0.04270845  0.06627449  1
  Mg  Mg33  1  0.06602381  0.45712160  0.43377034  1
  Pt  Pt34  1  0.99326436  0.02927169  0.48475898  1
  Pt  Pt35  1  0.49331619  0.47075579  0.01531205  1
  Cl  Cl36  1  0.46263058  0.25097989  0.99802177  1
  Cl  Cl37  1  0.28556881  0.96774239  0.14831430  1
  Cl  Cl38  1  0.73108890  0.02105105  0.31841156  1
  Cl  Cl39  1  0.96233880  0.24901196  0.50226641  1
  Cl  Cl40  1  0.23176930  0.03034102  0.66740283  1
  Cl  Cl41  1  0.72602121  0.98474510  0.84325479  1
  Cl  Cl42  1  0.50685774  0.68481201  0.02213150  1
  Cl  Cl43  1  0.78574246  0.53223244  0.35167286  1
  Cl  Cl44  1  0.23113984  0.47901059  0.18163662  1
  Cl  Cl45  1  0.00709129  0.81522841  0.47768095  1
  Cl  Cl46  1  0.22604704  0.51524976  0.65679989  1
  Cl  Cl47  1  0.73187321  0.46963697  0.83275204  1
