# generated using pymatgen
data_MgH10OsC2(N2Cl3)2
_symmetry_space_group_name_H-M   'P 1'
_cell_length_a   8.34850831
_cell_length_b   8.29626374
_cell_length_c   8.24951120
_cell_angle_alpha   87.43214839
_cell_angle_beta   89.99987743
_cell_angle_gamma   89.99943047
_symmetry_Int_Tables_number   1
_chemical_formula_structural   MgH10OsC2(N2Cl3)2
_chemical_formula_sum   'Mg2 H20 Os2 C4 N8 Cl12'
_cell_volume   570.79918133
_cell_formula_units_Z   2
loop_
 _symmetry_equiv_pos_site_id
 _symmetry_equiv_pos_as_xyz
  1  'x, y, z'
loop_
 _atom_site_type_symbol
 _atom_site_label
 _atom_site_symmetry_multiplicity
 _atom_site_fract_x
 _atom_site_fract_y
 _atom_site_fract_z
 _atom_site_occupancy
  C  C0  1  0.47981628  0.28848706  0.49330321  1
  C  C1  1  0.97982481  0.21155274  0.00669155  1
  C  C2  1  0.51695229  0.76252503  0.45621039  1
  C  C3  1  0.01694115  0.73745584  0.04379132  1
  N  N4  1  0.60446501  0.27827887  0.59750257  1
  N  N5  1  0.46672627  0.20570819  0.36558179  1
  N  N6  1  0.10450003  0.22174379  0.90250162  1
  N  N7  1  0.96675017  0.29426691  0.13443432  1
  N  N8  1  0.59796160  0.73966321  0.59424261  1
  N  N9  1  0.37274996  0.71091897  0.43166159  1
  N  N10  1  0.09794039  0.76032123  0.90574847  1
  N  N11  1  0.87273333  0.78909856  0.06834434  1
  H  H12  1  0.38693688  0.37644161  0.51706993  1
  H  H13  1  0.57657553  0.30911081  0.71387854  1
  H  H14  1  0.67559374  0.17617853  0.59724696  1
  H  H15  1  0.37558539  0.23296527  0.28592249  1
  H  H16  1  0.55470653  0.12606407  0.33454423  1
  H  H17  1  0.88690630  0.12363995  0.98285987  1
  H  H18  1  0.07661675  0.19095947  0.78611808  1
  H  H19  1  0.17564352  0.32381790  0.90281015  1
  H  H20  1  0.87559012  0.26702465  0.21407970  1
  H  H21  1  1.05475782  0.37386952  0.16552168  1
  H  H22  1  0.57842720  0.82608548  0.35592065  1
  H  H23  1  0.69195891  0.81668163  0.61513090  1
  H  H24  1  0.53909324  0.69754450  0.69692536  1
  H  H25  1  0.32127740  0.73403645  0.32096323  1
  H  H26  1  0.30200753  0.66197916  0.52215850  1
  H  H27  1  0.07840002  0.67388281  0.14406286  1
  H  H28  1  0.19193264  0.68330289  0.88485618  1
  H  H29  1  0.03907854  0.80246580  0.80307464  1
  H  H30  1  0.82127220  0.76598337  0.17905038  1
  H  H31  1  0.80200585  0.83806246  0.97785967  1
  Mg  Mg32  1  0.30484144  0.01015088  0.95407585  1
  Mg  Mg33  1  0.80484116  0.48983867  0.54592646  1
  Os  Os34  1  0.01686291  0.00471624  0.50325352  1
  Os  Os35  1  0.51687026  0.49527517  -0.00325214  1
  Cl  Cl36  1  0.53036217  0.20076488  0.98842760  1
  Cl  Cl37  1  0.20253103  0.99104205  0.22948590  1
  Cl  Cl38  1  0.78846561  0.02520958  0.33249242  1
  Cl  Cl39  1  0.03036576  0.29922206  0.51159089  1
  Cl  Cl40  1  0.27386669  0.99345542  0.66252216  1
  Cl  Cl41  1  0.83743490  0.99842496  0.72392073  1
  Cl  Cl42  1  0.50476230  0.79126155  0.00476599  1
  Cl  Cl43  1  0.70253862  0.50894296  0.27051437  1
  Cl  Cl44  1  0.28847627  0.47479902  0.16751681  1
  Cl  Cl45  1  0.00475465  0.70873108  0.49523192  1
  Cl  Cl46  1  0.33744516  0.50158240  0.77607999  1
  Cl  Cl47  1  0.77387300  0.50652933  0.83748452  1
