# generated using pymatgen
data_HfMgH10C2(N2Cl3)2
_symmetry_space_group_name_H-M   'P 1'
_cell_length_a   6.75289403
_cell_length_b   11.03886457
_cell_length_c   8.71591627
_cell_angle_alpha   95.70642374
_cell_angle_beta   87.21179363
_cell_angle_gamma   89.89078537
_symmetry_Int_Tables_number   1
_chemical_formula_structural   HfMgH10C2(N2Cl3)2
_chemical_formula_sum   'Hf2 Mg2 H20 C4 N8 Cl12'
_cell_volume   645.72177416
_cell_formula_units_Z   2
loop_
 _symmetry_equiv_pos_site_id
 _symmetry_equiv_pos_as_xyz
  1  'x, y, z'
loop_
 _atom_site_type_symbol
 _atom_site_label
 _atom_site_symmetry_multiplicity
 _atom_site_fract_x
 _atom_site_fract_y
 _atom_site_fract_z
 _atom_site_occupancy
  C  C0  1  0.45250853  0.31540518  0.48206993  1
  C  C1  1  0.99781436  0.19393231  0.02338300  1
  C  C2  1  0.49634019  0.78443307  0.51810660  1
  C  C3  1  0.04046413  0.70581531  0.98248208  1
  N  N4  1  0.45142034  0.29581753  0.62998873  1
  N  N5  1  0.47090557  0.22919854  0.36725143  1
  N  N6  1  0.04449415  0.23112439  0.88848841  1
  N  N7  1  0.99468383  0.26205111  0.15700905  1
  N  N8  1  0.52090986  0.71487167  0.62963583  1
  N  N9  1  0.40595437  0.75273413  0.39098073  1
  N  N10  1  0.05883048  0.77223508  0.86594174  1
  N  N11  1  0.97233445  0.74343487  0.12221888  1
  H  H12  1  0.43332826  0.40757582  0.44924746  1
  H  H13  1  0.47621607  0.37726934  0.69386404  1
  H  H14  1  0.66595072  0.06912952  0.52961082  1
  H  H15  1  0.46080828  0.24815585  0.25575001  1
  H  H16  1  0.49749970  0.14036506  0.38390660  1
  H  H17  1  0.95425625  0.09925806  0.03225942  1
  H  H18  1  0.03511016  0.15690317  0.80885422  1
  H  H19  1  0.30716473  0.45949453  0.89474670  1
  H  H20  1  0.95625050  0.22561911  0.25656998  1
  H  H21  1  0.03430312  0.35141272  0.16533773  1
  H  H22  1  0.55510583  0.87627694  0.53127039  1
  H  H23  1  0.59824934  0.74704094  0.72214293  1
  H  H24  1  0.44749684  0.63350130  0.63257923  1
  H  H25  1  0.38012488  0.81785069  0.31878729  1
  H  H26  1  0.34053178  0.66966113  0.36906797  1
  H  H27  1  0.08825195  0.61105963  0.96034827  1
  H  H28  1  0.10543996  0.72952066  0.76071197  1
  H  H29  1  0.01765141  0.86160446  0.87258957  1
  H  H30  1  0.95736940  0.68226647  0.20203940  1
  H  H31  1  0.91587023  0.82957926  0.15348294  1
  Mg  Mg32  1  0.52992873  0.13813674  0.71934141  1
  Mg  Mg33  1  0.12195280  0.37273940  0.76288019  1
  Hf  Hf34  1  0.92970028  0.00887204  0.49188305  1
  Hf  Hf35  1  0.51926061  0.49010182  0.03489706  1
  Cl  Cl36  1  0.51955395  0.25735222  0.99195646  1
  Cl  Cl37  1  0.19728742  0.00567844  0.29048243  1
  Cl  Cl38  1  0.73525731  0.98326264  0.25580591  1
  Cl  Cl39  1  0.96343211  0.23635387  0.53705309  1
  Cl  Cl40  1  0.24368928  0.00687193  0.67583035  1
  Cl  Cl41  1  0.76733881  0.98981770  0.78328537  1
  Cl  Cl42  1  0.50189725  0.70285064  0.00886198  1
  Cl  Cl43  1  0.72401258  0.49935347  0.25320844  1
  Cl  Cl44  1  0.23388416  0.50327467  0.21637065  1
  Cl  Cl45  1  0.95042068  0.79285977  0.49447512  1
  Cl  Cl46  1  0.16166984  0.53897216  0.61288747  1
  Cl  Cl47  1  0.76709385  0.47896761  0.82016243  1
