# generated using pymatgen
data_BaMgH10C2(N2Cl3)2
_symmetry_space_group_name_H-M   'P 1'
_cell_length_a   7.88030930
_cell_length_b   10.77316233
_cell_length_c   7.86519215
_cell_angle_alpha   89.80764400
_cell_angle_beta   89.99866222
_cell_angle_gamma   90.00102375
_symmetry_Int_Tables_number   1
_chemical_formula_structural   BaMgH10C2(N2Cl3)2
_chemical_formula_sum   'Ba2 Mg2 H20 C4 N8 Cl12'
_cell_volume   667.71841955
_cell_formula_units_Z   2
loop_
 _symmetry_equiv_pos_site_id
 _symmetry_equiv_pos_as_xyz
  1  'x, y, z'
loop_
 _atom_site_type_symbol
 _atom_site_label
 _atom_site_symmetry_multiplicity
 _atom_site_fract_x
 _atom_site_fract_y
 _atom_site_fract_z
 _atom_site_occupancy
  C  C0  1  0.49444762  0.29299019  0.49625175  1
  C  C1  1  0.99448350  0.20700437  0.00376035  1
  C  C2  1  0.50527729  0.79298254  0.50317054  1
  C  C3  1  0.00524504  0.70702126  0.99680240  1
  N  N4  1  0.60262562  0.23765019  0.59771490  1
  N  N5  1  0.39084274  0.23785311  0.39038694  1
  N  N6  1  0.10267617  0.26234198  0.90233611  1
  N  N7  1  0.89086728  0.26214122  0.10962934  1
  N  N8  1  0.60800417  0.73775212  0.61024220  1
  N  N9  1  0.39914842  0.73767863  0.39997614  1
  N  N10  1  0.10796095  0.76225903  0.88976586  1
  N  N11  1  0.89907198  0.76231830  0.09999569  1
  H  H12  1  0.48982980  0.39396925  0.50053536  1
  H  H13  1  0.68287039  0.29101321  0.66864540  1
  H  H14  1  0.60594083  0.14390927  0.61681799  1
  H  H15  1  0.30626800  0.29159703  0.32448649  1
  H  H16  1  0.39370529  0.14502206  0.36423292  1
  H  H17  1  0.98983965  0.10602729  0.99945756  1
  H  H18  1  0.18293328  0.20897995  0.83140211  1
  H  H19  1  0.10602591  0.35608751  0.88325785  1
  H  H20  1  0.80626989  0.20839892  0.17550049  1
  H  H21  1  0.89374319  0.35496800  0.13579694  1
  H  H22  1  0.50866498  0.89400880  0.49935526  1
  H  H23  1  0.67801676  0.79178257  0.69064377  1
  H  H24  1  0.62846889  0.64411550  0.61365587  1
  H  H25  1  0.33168267  0.79082830  0.31601048  1
  H  H26  1  0.37360700  0.64479682  0.40393401  1
  H  H27  1  0.00863844  0.60599553  0.00062521  1
  H  H28  1  0.17800765  0.70824005  0.80936620  1
  H  H29  1  0.12842192  0.85590051  0.88635796  1
  H  H30  1  0.83161163  0.70915836  0.18395143  1
  H  H31  1  0.87352547  0.85519392  0.09603604  1
  Mg  Mg32  1  0.49925473  0.00001257  0.99782435  1
  Mg  Mg33  1  0.99925680  0.49999847  0.50218288  1
  Ba  Ba34  1  0.00098843  0.00002423  0.49693649  1
  Ba  Ba35  1  0.50098951  0.49998897  0.00306469  1
  Cl  Cl36  1  0.49974013  0.22424278  0.99436098  1
  Cl  Cl37  1  0.24180704  0.98803013  0.19601802  1
  Cl  Cl38  1  0.69688476  0.01310081  0.25776279  1
  Cl  Cl39  1  0.99970895  0.27576812  0.50567199  1
  Cl  Cl40  1  0.30117173  0.01123399  0.74000836  1
  Cl  Cl41  1  0.75893176  0.98777631  0.79985943  1
  Cl  Cl42  1  0.50188550  0.77581604  0.00354221  1
  Cl  Cl43  1  0.74179661  0.51197818  0.30399091  1
  Cl  Cl44  1  0.19687474  0.48689191  0.24222454  1
  Cl  Cl45  1  0.00192252  0.72419539  0.49641532  1
  Cl  Cl46  1  0.25892566  0.51223447  0.70014962  1
  Cl  Cl47  1  0.80115804  0.48878480  0.75999062  1
