# generated using pymatgen
data_MgSnH10C2(N2Cl3)2
_symmetry_space_group_name_H-M   'P 1'
_cell_length_a   7.73993641
_cell_length_b   10.48527136
_cell_length_c   7.72516771
_cell_angle_alpha   89.86353398
_cell_angle_beta   89.99931089
_cell_angle_gamma   89.99937520
_symmetry_Int_Tables_number   1
_chemical_formula_structural   MgSnH10C2(N2Cl3)2
_chemical_formula_sum   'Mg2 Sn2 H20 C4 N8 Cl12'
_cell_volume   626.93678420
_cell_formula_units_Z   2
loop_
 _symmetry_equiv_pos_site_id
 _symmetry_equiv_pos_as_xyz
  1  'x, y, z'
loop_
 _atom_site_type_symbol
 _atom_site_label
 _atom_site_symmetry_multiplicity
 _atom_site_fract_x
 _atom_site_fract_y
 _atom_site_fract_z
 _atom_site_occupancy
  C  C0  1  0.49494964  0.29351427  0.49633998  1
  C  C1  1  0.99496883  0.20647952  0.00368860  1
  C  C2  1  0.50490128  0.79350063  0.50310378  1
  C  C3  1  0.00484966  0.70650254  0.99688849  1
  N  N4  1  0.60435657  0.23668606  0.59969209  1
  N  N5  1  0.38986143  0.23654230  0.38897750  1
  N  N6  1  0.10442447  0.26332385  0.90034594  1
  N  N7  1  0.88988252  0.26344962  0.11103937  1
  N  N8  1  0.60925935  0.73647754  0.61135340  1
  N  N9  1  0.39691782  0.73667738  0.39841939  1
  N  N10  1  0.10922218  0.76353902  0.88864389  1
  N  N11  1  0.89684681  0.76331053  0.10155195  1
  H  H12  1  0.49055783  0.39709634  0.50016080  1
  H  H13  1  0.68270453  0.29150050  0.67550095  1
  H  H14  1  0.61350057  0.14013311  0.61318578  1
  H  H15  1  0.30749114  0.29173434  0.31751223  1
  H  H16  1  0.38714921  0.14045353  0.36890289  1
  H  H17  1  0.99056155  0.10290528  0.99983457  1
  H  H18  1  0.18276420  0.20849119  0.82453982  1
  H  H19  1  0.11358878  0.35985438  0.88688496  1
  H  H20  1  0.80749598  0.20827518  0.18247461  1
  H  H21  1  0.88719100  0.35955084  0.13112511  1
  H  H22  1  0.50849435  0.89711339  0.49952847  1
  H  H23  1  0.68466694  0.79177668  0.68966577  1
  H  H24  1  0.62364421  0.63999098  0.62028399  1
  H  H25  1  0.32455122  0.79144471  0.31647568  1
  H  H26  1  0.37723862  0.64054271  0.39613014  1
  H  H27  1  0.00846590  0.60288935  0.00045879  1
  H  H28  1  0.18465221  0.70824447  0.81034416  1
  H  H29  1  0.12359282  0.86002196  0.87972395  1
  H  H30  1  0.82448077  0.70854271  0.18348816  1
  H  H31  1  0.87714862  0.85945087  0.10383966  1
  Mg  Mg32  1  0.50051842  0.00001465  0.99815850  1
  Mg  Mg33  1  0.00053304  0.49999299  0.50183408  1
  Sn  Sn34  1  0.00238424  0.00001703  0.49737081  1
  Sn  Sn35  1  0.50239754  0.49999196  0.00261724  1
  Cl  Cl36  1  0.49926981  0.23349731  0.99565847  1
  Cl  Cl37  1  0.23458086  0.98643740  0.20694225  1
  Cl  Cl38  1  0.70745838  0.01217251  0.26270557  1
  Cl  Cl39  1  0.99923729  0.26651002  0.50438070  1
  Cl  Cl40  1  0.29012772  0.01341912  0.73248613  1
  Cl  Cl41  1  0.76455128  0.98808541  0.78920428  1
  Cl  Cl42  1  0.50093807  0.76651947  0.00255285  1
  Cl  Cl43  1  0.73456775  0.51356208  0.29306577  1
  Cl  Cl44  1  0.20744566  0.48782733  0.23729309  1
  Cl  Cl45  1  0.00097227  0.73348784  0.49740838  1
  Cl  Cl46  1  0.26454674  0.51192612  0.71080342  1
  Cl  Cl47  1  0.79010928  0.48658597  0.76751835  1
