# generated using pymatgen
data_MgInH10C2(N2Cl3)2
_symmetry_space_group_name_H-M   'P 1'
_cell_length_a   7.79251798
_cell_length_b   10.58213742
_cell_length_c   7.84793167
_cell_angle_alpha   89.86434227
_cell_angle_beta   89.85402003
_cell_angle_gamma   90.07719555
_symmetry_Int_Tables_number   1
_chemical_formula_structural   MgInH10C2(N2Cl3)2
_chemical_formula_sum   'Mg2 In2 H20 C4 N8 Cl12'
_cell_volume   647.14767989
_cell_formula_units_Z   2
loop_
 _symmetry_equiv_pos_site_id
 _symmetry_equiv_pos_as_xyz
  1  'x, y, z'
loop_
 _atom_site_type_symbol
 _atom_site_label
 _atom_site_symmetry_multiplicity
 _atom_site_fract_x
 _atom_site_fract_y
 _atom_site_fract_z
 _atom_site_occupancy
  C  C0  1  0.49789493  0.28599170  0.49419407  1
  C  C1  1  0.99528093  0.20093625  0.00266400  1
  C  C2  1  0.50200035  0.79865301  0.49898101  1
  C  C3  1  0.00205994  0.71487931  0.99817060  1
  N  N4  1  0.60752363  0.22995281  0.59532215  1
  N  N5  1  0.39126624  0.22975040  0.39025499  1
  N  N6  1  0.10428459  0.25662580  0.89944755  1
  N  N7  1  0.89331890  0.25716780  0.11096329  1
  N  N8  1  0.60727373  0.74250341  0.60422142  1
  N  N9  1  0.39618724  0.74297184  0.39367868  1
  N  N10  1  0.10180299  0.77187807  0.88723230  1
  N  N11  1  0.89619785  0.76993351  0.10398981  1
  H  H12  1  0.49526102  0.38883357  0.49644766  1
  H  H13  1  0.68272874  0.28449476  0.67184718  1
  H  H14  1  0.61225651  0.13456100  0.61426989  1
  H  H15  1  0.31105517  0.28456886  0.31883029  1
  H  H16  1  0.38913613  0.13454414  0.36933491  1
  H  H17  1  0.98825167  0.09838871  -0.00309259  1
  H  H18  1  0.18455574  0.20144327  0.82772552  1
  H  H19  1  0.12654795  0.35145021  0.90031564  1
  H  H20  1  0.80921919  0.20220055  0.17908120  1
  H  H21  1  0.88815231  0.35254134  0.12937140  1
  H  H22  1  0.50249297  0.90141719  0.49916273  1
  H  H23  1  0.67711111  0.79746849  0.68603575  1
  H  H24  1  0.61877092  0.64696119  0.61560177  1
  H  H25  1  0.32546846  0.79825311  0.31289134  1
  H  H26  1  0.38226202  0.64747730  0.38407127  1
  H  H27  1  0.00755649  0.61210021  1.00306158  1
  H  H28  1  0.18332460  0.71833553  0.81575760  1
  H  H29  1  0.11905179  0.86748240  0.88187512  1
  H  H30  1  0.82479414  0.71410454  0.18349826  1
  H  H31  1  0.87310857  0.86488821  0.10582261  1
  Mg  Mg32  1  0.49866536  0.00047051  0.99702932  1
  Mg  Mg33  1  0.00960174  0.49972636  0.58682983  1
  In  In34  1  0.00118932  0.99941872  0.49835883  1
  In  In35  1  0.49818211  0.49990604  0.01792067  1
  Cl  Cl36  1  0.50259226  0.26590269  0.98660404  1
  Cl  Cl37  1  0.24791326  0.98217937  0.18164988  1
  Cl  Cl38  1  0.68370190  0.01608203  0.24645726  1
  Cl  Cl39  1  1.00111091  0.29622960  0.49410391  1
  Cl  Cl40  1  0.31328509  0.01814313  0.74713955  1
  Cl  Cl41  1  0.74964409  0.98333056  0.81131729  1
  Cl  Cl42  1  0.49885730  0.73417697  -0.00913643  1
  Cl  Cl43  1  0.70803566  0.51139133  0.25662266  1
  Cl  Cl44  1  0.23676124  0.48754540  0.20192401  1
  Cl  Cl45  1  -0.00069249  0.70220115  0.48865118  1
  Cl  Cl46  1  0.28760200  0.51156858  0.73539543  1
  Cl  Cl47  1  0.76737275  0.48903204  0.78820835  1
