# generated using pymatgen
data_MgCdH10C2(N2Cl3)2
_symmetry_space_group_name_H-M   'P 1'
_cell_length_a   7.62402228
_cell_length_b   10.19846239
_cell_length_c   7.60920683
_cell_angle_alpha   89.91566655
_cell_angle_beta   90.00045767
_cell_angle_gamma   89.99742125
_symmetry_Int_Tables_number   1
_chemical_formula_structural   MgCdH10C2(N2Cl3)2
_chemical_formula_sum   'Mg2 Cd2 H20 C4 N8 Cl12'
_cell_volume   591.64033468
_cell_formula_units_Z   2
loop_
 _symmetry_equiv_pos_site_id
 _symmetry_equiv_pos_as_xyz
  1  'x, y, z'
loop_
 _atom_site_type_symbol
 _atom_site_label
 _atom_site_symmetry_multiplicity
 _atom_site_fract_x
 _atom_site_fract_y
 _atom_site_fract_z
 _atom_site_occupancy
  C  C0  1  0.49544816  0.29410349  0.49639983  1
  C  C1  1  0.99549263  0.20589889  0.00360119  1
  C  C2  1  0.50455478  0.79408739  0.50337650  1
  C  C3  1  0.00451959  0.70591750  0.99660080  1
  N  N4  1  0.60607045  0.23572223  0.60138628  1
  N  N5  1  0.38892700  0.23515443  0.38810730  1
  N  N6  1  0.10612360  0.26427516  0.89866116  1
  N  N7  1  0.88896002  0.26484563  0.11190476  1
  N  N8  1  0.61013470  0.73511564  0.61281059  1
  N  N9  1  0.39523598  0.73572779  0.39725089  1
  N  N10  1  0.11008510  0.76489533  0.88719678  1
  N  N11  1  0.89516401  0.76426651  0.10272664  1
  H  H12  1  0.49136289  0.40051427  0.49965907  1
  H  H13  1  0.68386179  0.29207812  0.68020055  1
  H  H14  1  0.61804214  0.13653407  0.61196239  1
  H  H15  1  0.30733373  0.29162004  0.31308668  1
  H  H16  1  0.38264579  0.13606093  0.37204336  1
  H  H17  1  0.99137549  0.09948663  1.00032331  1
  H  H18  1  0.18392423  0.20791279  0.81983062  1
  H  H19  1  0.11812771  0.36346297  0.88810680  1
  H  H20  1  0.80734996  0.20838680  0.18689605  1
  H  H21  1  0.88269358  0.36393968  0.12798516  1
  H  H22  1  0.50831503  0.90051143  0.50013401  1
  H  H23  1  0.68897038  0.79160298  0.69046039  1
  H  H24  1  0.62098872  0.63588129  0.62461446  1
  H  H25  1  0.31968608  0.79210240  0.31605036  1
  H  H26  1  0.37897171  0.63668371  0.39127955  1
  H  H27  1  0.00829162  0.59949059  -0.00015392  1
  H  H28  1  0.18895399  0.70841517  0.80954949  1
  H  H29  1  0.12093294  0.86413176  0.87540115  1
  H  H30  1  0.81962439  0.70788746  0.18391046  1
  H  H31  1  0.87888307  0.86331097  0.10869431  1
  Mg  Mg32  1  0.49884816  0.00002156  0.99721685  1
  Mg  Mg33  1  0.99885911  0.49998610  0.50279329  1
  Cd  Cd34  1  0.00099641  -0.00001785  0.49705029  1
  Cd  Cd35  1  0.50101345  0.50002517  0.00294828  1
  Cl  Cl36  1  0.49959691  0.24800850  0.99673529  1
  Cl  Cl37  1  0.23007983  0.98563521  0.20975558  1
  Cl  Cl38  1  0.71120285  0.01195787  0.26688821  1
  Cl  Cl39  1  0.99957824  0.25199687  0.50330722  1
  Cl  Cl40  1  0.28885921  0.01442450  0.72881030  1
  Cl  Cl41  1  0.76925942  0.98802537  0.78606870  1
  Cl  Cl42  1  0.50062492  0.75216474  0.00285310  1
  Cl  Cl43  1  0.73006883  0.51436358  0.29025171  1
  Cl  Cl44  1  0.21120268  0.48805337  0.23311272  1
  Cl  Cl45  1  0.00067445  0.74784260  0.49711447  1
  Cl  Cl46  1  0.26925101  0.51198336  0.71394511  1
  Cl  Cl47  1  0.78885259  0.48556795  0.77119665  1
