# generated using pymatgen
data_MgH10PdC2(N2Cl3)2
_symmetry_space_group_name_H-M   'P 1'
_cell_length_a   7.24305273
_cell_length_b   10.63406702
_cell_length_c   8.25731865
_cell_angle_alpha   89.96296305
_cell_angle_beta   89.95462610
_cell_angle_gamma   89.96291634
_symmetry_Int_Tables_number   1
_chemical_formula_structural   MgH10PdC2(N2Cl3)2
_chemical_formula_sum   'Mg2 H20 Pd2 C4 N8 Cl12'
_cell_volume   636.00388212
_cell_formula_units_Z   2
loop_
 _symmetry_equiv_pos_site_id
 _symmetry_equiv_pos_as_xyz
  1  'x, y, z'
loop_
 _atom_site_type_symbol
 _atom_site_label
 _atom_site_symmetry_multiplicity
 _atom_site_fract_x
 _atom_site_fract_y
 _atom_site_fract_z
 _atom_site_occupancy
  C  C0  1  0.50240178  0.28574407  0.50159343  1
  C  C1  1  0.00267659  0.21424014  0.99821779  1
  C  C2  1  0.50293770  0.79172858  0.51350450  1
  C  C3  1  0.00354200  0.70825515  0.98624238  1
  N  N4  1  0.57019903  0.23642852  0.63369204  1
  N  N5  1  0.40633006  0.22527450  0.39148783  1
  N  N6  1  0.07157389  0.26344141  0.86646117  1
  N  N7  1  0.90752035  0.27512488  0.10879545  1
  N  N8  1  0.58051817  0.73320969  0.63519378  1
  N  N9  1  0.43154039  0.73893203  0.38465054  1
  N  N10  1  0.08151224  0.76674448  0.86467020  1
  N  N11  1  0.93210059  0.76103971  0.11522008  1
  H  H12  1  0.52980288  0.38526784  0.47999228  1
  H  H13  1  0.64250079  0.29397833  0.71043056  1
  H  H14  1  0.56070411  0.14325468  0.66281784  1
  H  H15  1  0.36338935  0.27175623  0.29018375  1
  H  H16  1  0.36897618  0.13324038  0.40348052  1
  H  H17  1  0.02820937  0.11439925  0.01913081  1
  H  H18  1  0.14305396  0.20548081  0.78941276  1
  H  H19  1  0.06375306  0.35677017  0.83773221  1
  H  H20  1  0.86326128  0.22852387  0.20958035  1
  H  H21  1  0.87154235  0.36747506  0.09737210  1
  H  H22  1  0.49585662  0.89379910  0.52069068  1
  H  H23  1  0.63268855  0.78525109  0.72849607  1
  H  H24  1  0.59264992  0.63783339  0.64287157  1
  H  H25  1  0.37095347  0.79409036  0.29806348  1
  H  H26  1  0.43499384  0.64459292  0.36450125  1
  H  H27  1  0.99616766  0.60620342  0.97881801  1
  H  H28  1  0.13361262  0.71468031  0.77124244  1
  H  H29  1  0.09384305  0.86210122  0.85711058  1
  H  H30  1  0.87134649  0.70590610  0.20176263  1
  H  H31  1  0.93587936  0.85534930  0.13558587  1
  Mg  Mg32  1  0.55835598  0.04024524  0.06196395  1
  Mg  Mg33  1  0.05859886  0.45948667  0.43835785  1
  Pd  Pd34  1  0.99676907  0.02530319  0.48586425  1
  Pd  Pd35  1  0.49754162  0.47475649  0.01426733  1
  Cl  Cl36  1  0.47477803  0.25280501  0.00713411  1
  Cl  Cl37  1  0.27797825  0.97124113  0.15567219  1
  Cl  Cl38  1  0.74162142  0.01950225  0.30325237  1
  Cl  Cl39  1  0.97379772  0.24726272  0.49347708  1
  Cl  Cl40  1  0.23325240  0.02553728  0.67267779  1
  Cl  Cl41  1  0.72333736  0.98244158  0.83899122  1
  Cl  Cl42  1  0.50039679  0.68835644  0.01089936  1
  Cl  Cl43  1  0.77850633  0.52896197  0.34450953  1
  Cl  Cl44  1  0.24196979  0.48101593  0.19686383  1
  Cl  Cl45  1  0.99941395  0.81169508  0.48910267  1
  Cl  Cl46  1  0.22377707  0.51721115  0.66103051  1
  Cl  Cl47  1  0.73388698  0.47412383  0.82703576  1
