# generated using pymatgen
data_MgH10RuC2(N2Cl3)2
_symmetry_space_group_name_H-M   'P 1'
_cell_length_a   8.41734660
_cell_length_b   8.27519961
_cell_length_c   8.25557453
_cell_angle_alpha   86.77937561
_cell_angle_beta   89.99701489
_cell_angle_gamma   90.00076039
_symmetry_Int_Tables_number   1
_chemical_formula_structural   MgH10RuC2(N2Cl3)2
_chemical_formula_sum   'Mg2 H20 Ru2 C4 N8 Cl12'
_cell_volume   574.13566474
_cell_formula_units_Z   2
loop_
 _symmetry_equiv_pos_site_id
 _symmetry_equiv_pos_as_xyz
  1  'x, y, z'
loop_
 _atom_site_type_symbol
 _atom_site_label
 _atom_site_symmetry_multiplicity
 _atom_site_fract_x
 _atom_site_fract_y
 _atom_site_fract_z
 _atom_site_occupancy
  C  C0  1  0.48040150  0.27904008  0.49740069  1
  C  C1  1  0.98042292  0.22097989  0.00258588  1
  C  C2  1  0.51493722  0.76856589  0.45303087  1
  C  C3  1  0.01495504  0.73142967  0.04696928  1
  N  N4  1  0.60641788  0.26730884  0.59805524  1
  N  N5  1  0.46569499  0.20060308  0.36771277  1
  N  N6  1  0.10646575  0.23269315  0.90196190  1
  N  N7  1  0.96571084  0.29940287  0.13229577  1
  N  N8  1  0.58973918  0.76010011  0.59385538  1
  N  N9  1  0.37258342  0.71358592  0.42902432  1
  N  N10  1  0.08972720  0.73987557  0.90610407  1
  N  N11  1  0.87262257  0.78641898  0.07099973  1
  H  H12  1  0.38753605  0.36455881  0.52610883  1
  H  H13  1  0.58219642  0.29504498  0.71551811  1
  H  H14  1  0.67916665  0.16709707  0.59321170  1
  H  H15  1  0.37309522  0.22896162  0.29080392  1
  H  H16  1  0.55401990  0.12479676  0.33168190  1
  H  H17  1  0.88753728  0.13549521  0.97384436  1
  H  H18  1  0.08226858  0.20498037  0.78448594  1
  H  H19  1  0.17923583  0.33289074  0.90682875  1
  H  H20  1  0.87307851  0.27107224  0.20917953  1
  H  H21  1  0.05405341  0.37517578  0.16834151  1
  H  H22  1  0.57839568  0.82352150  0.34903777  1
  H  H23  1  0.68967786  0.82892131  0.60926223  1
  H  H24  1  0.53251289  0.71903053  0.69760038  1
  H  H25  1  0.32683627  0.72228675  0.31474319  1
  H  H26  1  0.30056695  0.66966689  0.52067413  1
  H  H27  1  0.07844408  0.67648418  0.15092755  1
  H  H28  1  0.18967102  0.67106562  0.89067859  1
  H  H29  1  0.03248991  0.78094633  0.80238407  1
  H  H30  1  0.82690746  0.77775538  0.18531700  1
  H  H31  1  0.80058188  0.83032636  0.97938424  1
  Mg  Mg32  1  0.30897993  0.01693773  0.95678540  1
  Mg  Mg33  1  0.80896235  0.48305288  0.54322148  1
  Ru  Ru34  1  0.01769739  0.00408896  0.50085461  1
  Ru  Ru35  1  0.51771227  0.49591019  0.99915523  1
  Cl  Cl36  1  0.53306395  0.20189229  0.98922285  1
  Cl  Cl37  1  0.19791730  0.99415316  0.22503602  1
  Cl  Cl38  1  0.78994606  0.02743424  0.33196879  1
  Cl  Cl39  1  0.03305056  0.29810204  0.51079730  1
  Cl  Cl40  1  0.26931044  0.98897316  0.67013594  1
  Cl  Cl41  1  0.84672033  0.99602341  0.72613072  1
  Cl  Cl42  1  0.50239510  0.79346567  0.00647933  1
  Cl  Cl43  1  0.69792520  0.50584371  0.27497541  1
  Cl  Cl44  1  0.28995094  0.47256836  0.16805629  1
  Cl  Cl45  1  0.00237092  0.70653596  0.49351769  1
  Cl  Cl46  1  0.34675492  0.50397211  0.77388564  1
  Cl  Cl47  1  0.76931130  0.51102664  0.82987247  1
