# generated using pymatgen
data_SrMgH10C2(N2Cl3)2
_symmetry_space_group_name_H-M   'P 1'
_cell_length_a   7.76197872
_cell_length_b   10.53069064
_cell_length_c   7.74804849
_cell_angle_alpha   89.81444335
_cell_angle_beta   89.99949178
_cell_angle_gamma   89.99890540
_symmetry_Int_Tables_number   1
_chemical_formula_structural   SrMgH10C2(N2Cl3)2
_chemical_formula_sum   'Sr2 Mg2 H20 C4 N8 Cl12'
_cell_volume   633.31438798
_cell_formula_units_Z   2
loop_
 _symmetry_equiv_pos_site_id
 _symmetry_equiv_pos_as_xyz
  1  'x, y, z'
loop_
 _atom_site_type_symbol
 _atom_site_label
 _atom_site_symmetry_multiplicity
 _atom_site_fract_x
 _atom_site_fract_y
 _atom_site_fract_z
 _atom_site_occupancy
  C  C0  1  0.49474222  0.29349104  0.49639059  1
  C  C1  1  0.99476214  0.20650638  0.00363232  1
  C  C2  1  0.50499746  0.79348787  0.50317128  1
  C  C3  1  0.00495549  0.70651520  0.99681025  1
  N  N4  1  0.60398126  0.23691214  0.59948627  1
  N  N5  1  0.38993529  0.23685795  0.38922106  1
  N  N6  1  0.10403985  0.26308323  0.90055353  1
  N  N7  1  0.88996369  0.26313856  0.11078586  1
  N  N8  1  0.60918327  0.73681754  0.61126814  1
  N  N9  1  0.39735015  0.73690330  0.39876628  1
  N  N10  1  0.10914147  0.76319485  0.88873382  1
  N  N11  1  0.89727639  0.76309153  0.10120698  1
  H  H12  1  0.49021336  0.39669560  0.50027763  1
  H  H13  1  0.68303791  0.29152356  0.67407688  1
  H  H14  1  0.61108548  0.14080158  0.61503072  1
  H  H15  1  0.30677032  0.29183658  0.31914320  1
  H  H16  1  0.38906065  0.14132841  0.36707140  1
  H  H17  1  0.99022175  0.10330164  0.99971101  1
  H  H18  1  0.18309783  0.20846720  0.82596686  1
  H  H19  1  0.11116932  0.35919252  0.88504297  1
  H  H20  1  0.80676841  0.20816242  0.18084432  1
  H  H21  1  0.88909556  0.35866652  0.13295861  1
  H  H22  1  0.50845175  0.89673374  0.49948075  1
  H  H23  1  0.68323635  0.79194172  0.69029811  1
  H  H24  1  0.62583116  0.64074819  0.61832162  1
  H  H25  1  0.32613572  0.79142403  0.31605309  1
  H  H26  1  0.37565045  0.64134828  0.39867581  1
  H  H27  1  0.00842502  0.60326923  0.00049849  1
  H  H28  1  0.18322252  0.70807917  0.80971303  1
  H  H29  1  0.12577842  0.85926606  0.88169427  1
  H  H30  1  0.82606247  0.70856307  0.18390997  1
  H  H31  1  0.87555937  0.85864401  0.10129805  1
  Mg  Mg32  1  0.49880614  0.00000840  0.99768551  1
  Mg  Mg33  1  0.99880932  0.50000309  0.50232237  1
  Sr  Sr34  1  0.00101613  0.00002159  0.49717596  1
  Sr  Sr35  1  0.50101845  0.49999118  0.00282306  1
  Cl  Cl36  1  0.49963296  0.23017208  0.99566577  1
  Cl  Cl37  1  0.23647438  0.98721686  0.20501477  1
  Cl  Cl38  1  0.70655745  0.01213116  0.26248254  1
  Cl  Cl39  1  0.99960801  0.26983948  0.50436459  1
  Cl  Cl40  1  0.29240425  0.01258480  0.73455409  1
  Cl  Cl41  1  0.76409287  0.98818061  0.79051105  1
  Cl  Cl42  1  0.50142936  0.76986987  0.00290226  1
  Cl  Cl43  1  0.73646251  0.51279045  0.29499569  1
  Cl  Cl44  1  0.20655495  0.48786856  0.23750819  1
  Cl  Cl45  1  0.00146868  0.73014080  0.49705886  1
  Cl  Cl46  1  0.26408664  0.51182731  0.70950055  1
  Cl  Cl47  1  0.79239473  0.48742359  0.76544635  1
