# generated using pymatgen
data_ScGaH12C2(I3N)2
_symmetry_space_group_name_H-M   'P 1'
_cell_length_a   8.42012447
_cell_length_b   12.08514908
_cell_length_c   8.28597020
_cell_angle_alpha   87.48625119
_cell_angle_beta   90.00142659
_cell_angle_gamma   90.03381625
_symmetry_Int_Tables_number   1
_chemical_formula_structural   ScGaH12C2(I3N)2
_chemical_formula_sum   'Sc2 Ga2 H24 C4 I12 N4'
_cell_volume   842.35605789
_cell_formula_units_Z   2
loop_
 _symmetry_equiv_pos_site_id
 _symmetry_equiv_pos_as_xyz
  1  'x, y, z'
loop_
 _atom_site_type_symbol
 _atom_site_label
 _atom_site_symmetry_multiplicity
 _atom_site_fract_x
 _atom_site_fract_y
 _atom_site_fract_z
 _atom_site_occupancy
  C  C0  1  0.40048744  0.24894060  0.41583063  1
  C  C1  1  0.90144130  0.25111206  0.08503299  1
  C  C2  1  0.59950715  0.75106292  0.58418398  1
  C  C3  1  0.09856653  0.74889038  0.91497812  1
  N  N4  1  0.54237788  0.24801737  0.52201853  1
  N  N5  1  0.04275989  0.25198672  0.97806117  1
  N  N6  1  0.45761778  0.75198746  0.47799453  1
  N  N7  1  0.95724725  0.74801245  0.02194965  1
  H  H8  1  0.43995541  0.25120229  0.28985558  1
  H  H9  1  0.33149486  0.17368823  0.44254483  1
  H  H10  1  0.32991822  0.32240356  0.43883847  1
  H  H11  1  0.61235512  0.17949310  0.50045651  1
  H  H12  1  0.61074379  0.31865218  0.49775880  1
  H  H13  1  0.51240841  0.24524512  0.64445876  1
  H  H14  1  0.94152431  0.24888397  0.21075337  1
  H  H15  1  0.83055301  0.17765513  0.06242976  1
  H  H16  1  0.83247665  0.32639332  0.05862884  1
  H  H17  1  0.11109412  0.18131959  0.00209225  1
  H  H18  1  0.11303375  0.32049467  0.99928491  1
  H  H19  1  0.01225215  0.25472012  0.85583510  1
  H  H20  1  0.56004223  0.74880302  0.71015744  1
  H  H21  1  0.67007683  0.67760058  0.56117485  1
  H  H22  1  0.66850110  0.82631631  0.55746610  1
  H  H23  1  0.38763881  0.82051013  0.49955869  1
  H  H24  1  0.38925095  0.68135036  0.50225774  1
  H  H25  1  0.48758461  0.75475813  0.35555717  1
  H  H26  1  0.05848244  0.75112071  0.78925697  1
  H  H27  1  0.16945284  0.82234753  0.93758396  1
  H  H28  1  0.16753208  0.67360955  0.94137827  1
  H  H29  1  0.88891127  0.81867815  0.99792102  1
  H  H30  1  0.88697612  0.67950315  0.00072415  1
  H  H31  1  0.98775539  0.74527775  0.14417607  1
  Sc  Sc32  1  0.50000271  0.00000317  0.00000849  1
  Sc  Sc33  1  0.99999736  0.50000258  0.50000162  1
  Ga  Ga34  1  0.00000076  0.00000393  0.50000739  1
  Ga  Ga35  1  0.50000084  0.50000492  0.99999915  1
  I  I36  1  0.47897248  0.23797683  0.94716766  1
  I  I37  1  0.20179612  0.00411706  0.17137223  1
  I  I38  1  0.67011544  0.01618083  0.30160381  1
  I  I39  1  0.97832874  0.26205853  0.55323534  1
  I  I40  1  0.32988696  0.98382491  0.69841515  1
  I  I41  1  0.79820923  0.99588596  0.82864581  1
  I  I42  1  0.52103436  0.76202963  0.05284931  1
  I  I43  1  0.70192437  0.49580104  0.32835187  1
  I  I44  1  0.17036249  0.48386409  0.19856059  1
  I  I45  1  0.02166577  0.73794641  0.44677616  1
  I  I46  1  0.29807059  0.50420171  0.67165533  1
  I  I47  1  0.82963583  0.51614008  0.80144751  1
