# generated using pymatgen
data_MgGeH10C2(N2Cl3)2
_symmetry_space_group_name_H-M   'P 1'
_cell_length_a   8.14104985
_cell_length_b   9.84056266
_cell_length_c   8.15855636
_cell_angle_alpha   89.27841239
_cell_angle_beta   88.83914531
_cell_angle_gamma   89.29834888
_symmetry_Int_Tables_number   1
_chemical_formula_structural   MgGeH10C2(N2Cl3)2
_chemical_formula_sum   'Mg2 Ge2 H20 C4 N8 Cl12'
_cell_volume   653.36946656
_cell_formula_units_Z   2
loop_
 _symmetry_equiv_pos_site_id
 _symmetry_equiv_pos_as_xyz
  1  'x, y, z'
loop_
 _atom_site_type_symbol
 _atom_site_label
 _atom_site_symmetry_multiplicity
 _atom_site_fract_x
 _atom_site_fract_y
 _atom_site_fract_z
 _atom_site_occupancy
  C  C0  1  0.48883891  0.29487255  0.49500533  1
  C  C1  1  0.00093667  0.20567589  0.00438007  1
  C  C2  1  0.49801482  0.79507201  0.49221993  1
  C  C3  1  0.00560392  0.70542766  0.00234672  1
  N  N4  1  0.58685541  0.23824849  0.60181494  1
  N  N5  1  0.39150109  0.23221644  0.39580581  1
  N  N6  1  0.10932083  0.26450508  0.90744550  1
  N  N7  1  0.89997453  0.26637320  0.10738761  1
  N  N8  1  0.60385272  0.73549133  0.58885148  1
  N  N9  1  0.39790858  0.73534824  0.39311211  1
  N  N10  1  0.10612807  0.76604263  0.89870555  1
  N  N11  1  0.90625208  0.76464437  0.10818550  1
  H  H12  1  0.48826851  0.40525438  0.48739059  1
  H  H13  1  0.65751836  0.29827122  0.67282456  1
  H  H14  1  0.59702040  0.13593094  0.62036975  1
  H  H15  1  0.32031878  0.29020628  0.31901755  1
  H  H16  1  0.38166563  0.12940639  0.38867484  1
  H  H17  1  0.99474466  0.09546092  -0.00045230  1
  H  H18  1  0.17826582  0.20519874  0.82898174  1
  H  H19  1  0.12719583  0.36679325  0.90070095  1
  H  H20  1  0.81895913  0.20874949  0.17483423  1
  H  H21  1  0.88606821  0.36923582  0.11450546  1
  H  H22  1  0.49235002  0.90544792  0.49489803  1
  H  H23  1  0.67591202  0.79353523  0.66081427  1
  H  H24  1  0.62085040  0.63291471  0.59621358  1
  H  H25  1  0.32187789  0.79517912  0.32318454  1
  H  H26  1  0.38917671  0.63279010  0.38082101  1
  H  H27  1  0.00585819  0.59494184  0.00141974  1
  H  H28  1  0.17589823  0.70788544  0.82028889  1
  H  H29  1  0.10898502  0.86864626  0.88023265  1
  H  H30  1  0.82996600  0.70512975  0.17943084  1
  H  H31  1  0.89519378  0.86720212  0.12148407  1
  Mg  Mg32  1  0.41925086  0.99730670  0.98515277  1
  Mg  Mg33  1  0.98667622  0.49785814  0.42198066  1
  Ge  Ge34  1  0.97708909  0.00486694  0.50635900  1
  Ge  Ge35  1  0.50884518  0.50451410  0.97835335  1
  Cl  Cl36  1  0.52778775  0.21398672  0.00784003  1
  Cl  Cl37  1  0.22516316  0.98221317  0.20289871  1
  Cl  Cl38  1  0.75298539  0.01437114  0.32043903  1
  Cl  Cl39  1  0.99203366  0.27692425  0.53526642  1
  Cl  Cl40  1  0.29060880  0.01558918  0.72913818  1
  Cl  Cl41  1  0.80672913  0.98818068  0.74732006  1
  Cl  Cl42  1  0.53434242  0.77675666  0.99245027  1
  Cl  Cl43  1  0.73065424  0.51566327  0.29244206  1
  Cl  Cl44  1  0.20506291  0.48253254  0.22821240  1
  Cl  Cl45  1  0.00967288  0.71526068  0.52752231  1
  Cl  Cl46  1  0.32186689  0.51398214  0.75512218  1
  Cl  Cl47  1  0.74996951  0.48795889  0.80871179  1
