# generated using pymatgen
data_MgGaH10C2(N2Cl3)2
_symmetry_space_group_name_H-M   'P 1'
_cell_length_a   8.04225378
_cell_length_b   9.87098771
_cell_length_c   8.22073636
_cell_angle_alpha   87.22792049
_cell_angle_beta   90.33818335
_cell_angle_gamma   91.24593024
_symmetry_Int_Tables_number   1
_chemical_formula_structural   MgGaH10C2(N2Cl3)2
_chemical_formula_sum   'Mg2 Ga2 H20 C4 N8 Cl12'
_cell_volume   651.67759787
_cell_formula_units_Z   2
loop_
 _symmetry_equiv_pos_site_id
 _symmetry_equiv_pos_as_xyz
  1  'x, y, z'
loop_
 _atom_site_type_symbol
 _atom_site_label
 _atom_site_symmetry_multiplicity
 _atom_site_fract_x
 _atom_site_fract_y
 _atom_site_fract_z
 _atom_site_occupancy
  C  C0  1  0.49662473  0.30125091  0.48821053  1
  C  C1  1  0.00646500  0.30177726  0.97833986  1
  C  C2  1  0.51415727  0.70593136  0.48047692  1
  C  C3  1  0.95244578  0.71847226  0.99750405  1
  N  N4  1  0.60545368  0.24164099  0.58457701  1
  N  N5  1  0.39338463  0.23940914  0.39091426  1
  N  N6  1  0.13413038  0.24925602  0.90718558  1
  N  N7  1  0.91775581  0.24093852  0.09419449  1
  N  N8  1  0.57448558  0.76144024  0.61018084  1
  N  N9  1  0.37755140  0.74160611  0.40308724  1
  N  N10  1  0.09337825  0.71856310  0.91700505  1
  N  N11  1  0.92028338  0.79837676  0.11515206  1
  H  H12  1  0.48933184  0.41097773  0.49038900  1
  H  H13  1  0.68083711  0.30126819  0.65352545  1
  H  H14  1  0.62323941  0.13973308  0.58762073  1
  H  H15  1  0.30798704  0.29606045  0.32654335  1
  H  H16  1  0.38782908  0.13651444  0.38609761  1
  H  H17  1  0.18351804  0.15985298  0.95019863  1
  H  H18  1  0.19374908  0.30682889  0.81715952  1
  H  H19  1  0.96897483  0.40224182  0.93313454  1
  H  H20  1  0.94576108  0.14753028  0.14348339  1
  H  H21  1  0.82871126  0.29447573  0.15000219  1
  H  H22  1  0.51491763  0.83464784  0.66919211  1
  H  H23  1  0.68146523  0.72374224  0.65972287  1
  H  H24  1  0.58660380  0.62503536  0.43062215  1
  H  H25  1  0.29840820  0.81042213  0.44680034  1
  H  H26  1  0.32862069  0.67792654  0.31917345  1
  H  H27  1  0.85516768  0.64682681  0.96238502  1
  H  H28  1  0.11149251  0.64885359  0.83012496  1
  H  H29  1  0.19384299  0.77818509  0.94631008  1
  H  H30  1  0.00631731  0.86924113  0.15212578  1
  H  H31  1  0.80571957  0.79650821  0.16737387  1
  Mg  Mg32  1  0.49169117  0.99758131  0.10433025  1
  Mg  Mg33  1  0.99653491  0.46913502  0.47754855  1
  Ga  Ga34  1  0.02533442  0.00678646  0.61554834  1
  Ga  Ga35  1  0.48769492  0.47804803  0.00593139  1
  Cl  Cl36  1  0.53023520  0.20857472  0.96567883  1
  Cl  Cl37  1  0.21162232  0.00765514  0.18123740  1
  Cl  Cl38  1  0.66943346  1.00046777  0.32283893  1
  Cl  Cl39  1  0.99658493  0.20383962  0.46893286  1
  Cl  Cl40  1  0.28877768  0.00585616  0.69676757  1
  Cl  Cl41  1  0.83619005  0.01172504  0.80435977  1
  Cl  Cl42  1  0.50955440  0.78848599  0.98756092  1
  Cl  Cl43  1  0.76725732  0.48979820  0.27590093  1
  Cl  Cl44  1  0.19066475  0.49227312  0.24527848  1
  Cl  Cl45  1  0.99227714  0.81353164  0.49350670  1
  Cl  Cl46  1  0.22610720  0.49773377  0.66841901  1
  Cl  Cl47  1  0.80144917  0.50303579  0.69745189  1
