# generated using pymatgen
data_MgZnH10C2(N2Cl3)2
_symmetry_space_group_name_H-M   'P 1'
_cell_length_a   6.48029206
_cell_length_b   12.67125780
_cell_length_c   8.20448496
_cell_angle_alpha   89.38516167
_cell_angle_beta   90.00054041
_cell_angle_gamma   90.00708389
_symmetry_Int_Tables_number   1
_chemical_formula_structural   MgZnH10C2(N2Cl3)2
_chemical_formula_sum   'Mg2 Zn2 H20 C4 N8 Cl12'
_cell_volume   673.65978217
_cell_formula_units_Z   2
loop_
 _symmetry_equiv_pos_site_id
 _symmetry_equiv_pos_as_xyz
  1  'x, y, z'
loop_
 _atom_site_type_symbol
 _atom_site_label
 _atom_site_symmetry_multiplicity
 _atom_site_fract_x
 _atom_site_fract_y
 _atom_site_fract_z
 _atom_site_occupancy
  C  C0  1  0.45311441  0.31492681  0.44236526  1
  C  C1  1  0.95316082  0.18506097  0.05761147  1
  C  C2  1  0.50594507  0.80436554  0.49217701  1
  C  C3  1  0.00606236  0.69563047  0.00780478  1
  N  N4  1  0.50770819  0.30421077  0.59569066  1
  N  N5  1  0.48188019  0.24287536  0.33163530  1
  N  N6  1  0.00784748  0.19588961  0.90433214  1
  N  N7  1  0.98174337  0.25707549  0.16843870  1
  N  N8  1  0.55777756  0.73028559  0.59663799  1
  N  N9  1  0.51080132  0.79353896  0.33310911  1
  N  N10  1  0.05777021  0.76972578  0.90333597  1
  N  N11  1  0.01090305  0.70645440  0.16686670  1
  H  H12  1  0.38311513  0.38946718  0.40466375  1
  H  H13  1  0.46603292  0.35992122  0.67755663  1
  H  H14  1  0.57699636  0.23828162  0.64153987  1
  H  H15  1  0.44809217  0.25758552  0.21139725  1
  H  H16  1  0.54937531  0.17138118  0.35930807  1
  H  H17  1  0.88324934  0.11046394  0.09519910  1
  H  H18  1  0.96636547  0.14021228  0.82234332  1
  H  H19  1  0.07708849  0.26188097  0.85862609  1
  H  H20  1  0.94790761  0.24229231  0.28864803  1
  H  H21  1  0.04916519  0.32860937  0.14085863  1
  H  H22  1  0.45769654  0.88076260  0.53893248  1
  H  H23  1  0.55151616  0.74208619  0.72025507  1
  H  H24  1  0.61089892  0.65886157  0.55558788  1
  H  H25  1  0.46341175  0.85430145  0.25880438  1
  H  H26  1  0.54864559  0.72433257  0.27825839  1
  H  H27  1  0.95792220  0.61919639  0.96104449  1
  H  H28  1  0.05151410  0.75792636  0.77972459  1
  H  H29  1  0.11077823  0.84118748  0.94439332  1
  H  H30  1  0.96357262  0.64566967  0.24117550  1
  H  H31  1  0.04862206  0.77568275  0.22171524  1
  Mg  Mg32  1  0.42743714  0.04521517  0.88827197  1
  Mg  Mg33  1  0.92738203  0.45476349  0.61174382  1
  Zn  Zn34  1  0.94205981  0.96221595  0.56871045  1
  Zn  Zn35  1  0.44211338  0.53777511  0.93129970  1
  Cl  Cl36  1  0.49448402  0.21758426  0.94997698  1
  Cl  Cl37  1  0.25782705  0.96309491  0.10055719  1
  Cl  Cl38  1  0.75864724  0.03552147  0.36991919  1
  Cl  Cl39  1  0.99434705  0.28239194  0.55004593  1
  Cl  Cl40  1  0.25797750  0.04320742  0.62977236  1
  Cl  Cl41  1  0.75669289  0.97046005  0.81850831  1
  Cl  Cl42  1  0.53162396  0.70524449  0.97667206  1
  Cl  Cl43  1  0.75787168  0.53692325  0.39946907  1
  Cl  Cl44  1  0.25862489  0.46444055  0.13004087  1
  Cl  Cl45  1  0.03155253  0.79475516  0.52331111  1
  Cl  Cl46  1  0.25669622  0.52952431  0.68149981  1
  Cl  Cl47  1  0.75800176  0.45680304  0.87026877  1
