# generated using pymatgen
data_MgNiH10C2(N2Cl3)2
_symmetry_space_group_name_H-M   'P 1'
_cell_length_a   7.12207472
_cell_length_b   10.54609170
_cell_length_c   8.26530229
_cell_angle_alpha   90.26788910
_cell_angle_beta   89.97281820
_cell_angle_gamma   90.03551523
_symmetry_Int_Tables_number   1
_chemical_formula_structural   MgNiH10C2(N2Cl3)2
_chemical_formula_sum   'Mg2 Ni2 H20 C4 N8 Cl12'
_cell_volume   620.80031948
_cell_formula_units_Z   2
loop_
 _symmetry_equiv_pos_site_id
 _symmetry_equiv_pos_as_xyz
  1  'x, y, z'
loop_
 _atom_site_type_symbol
 _atom_site_label
 _atom_site_symmetry_multiplicity
 _atom_site_fract_x
 _atom_site_fract_y
 _atom_site_fract_z
 _atom_site_occupancy
  C  C0  1  0.49374813  0.28631146  0.49235801  1
  C  C1  1  0.99319152  0.21361799  0.00777237  1
  C  C2  1  0.50214779  0.79134448  0.49032173  1
  C  C3  1  0.00173291  0.70867361  0.00986985  1
  N  N4  1  0.58672290  0.22716786  0.60661656  1
  N  N5  1  0.42870051  0.23421521  0.36020106  1
  N  N6  1  0.08544090  0.27314008  0.89324412  1
  N  N7  1  0.92752398  0.26551830  0.13982977  1
  N  N8  1  0.56720835  0.73621342  0.62044059  1
  N  N9  1  0.42725220  0.73447279  0.36491874  1
  N  N10  1  0.06667850  0.76376966  0.87958704  1
  N  N11  1  0.92655205  0.76555917  0.13514916  1
  H  H12  1  0.46708261  0.38727811  0.51007921  1
  H  H13  1  0.62744239  0.27608508  0.70762833  1
  H  H14  1  0.62703776  0.13458950  0.59688444  1
  H  H15  1  0.35932233  0.29147409  0.27991238  1
  H  H16  1  0.43489481  0.13934969  0.33496702  1
  H  H17  1  0.96772847  0.11246485  0.99035604  1
  H  H18  1  0.12703959  0.22423566  0.79249694  1
  H  H19  1  0.12496150  0.36590667  0.90282445  1
  H  H20  1  0.85881817  0.20791806  0.22027898  1
  H  H21  1  0.93271887  0.36043650  0.16496013  1
  H  H22  1  0.51297664  0.89422369  0.48556873  1
  H  H23  1  0.62663281  0.79067789  0.70950250  1
  H  H24  1  0.55849315  0.64120121  0.64003841  1
  H  H25  1  0.37884677  0.78833027  0.27133786  1
  H  H26  1  0.41456281  0.63848796  0.35378934  1
  H  H27  1  0.01290672  0.60582652  0.01490141  1
  H  H28  1  0.12627269  0.70931632  0.79060358  1
  H  H29  1  0.05757668  0.85872663  0.85977268  1
  H  H30  1  0.87831649  0.71172331  0.22888468  1
  H  H31  1  0.91363563  0.86153148  0.14608689  1
  Mg  Mg32  1  0.43695835  0.04729181  0.93132777  1
  Mg  Mg33  1  0.93691013  0.45257393  0.56844883  1
  Ni  Ni34  1  0.00316899  0.02638111  0.51507234  1
  Ni  Ni35  1  0.50257695  0.47368944  0.98479201  1
  Cl  Cl36  1  0.52277256  0.26206559  0.98778886  1
  Cl  Cl37  1  0.28061765  0.98261492  0.15689851  1
  Cl  Cl38  1  0.77876689  0.02707883  0.33782865  1
  Cl  Cl39  1  0.02357285  0.23803927  0.51168344  1
  Cl  Cl40  1  0.24615861  0.02182251  0.69243588  1
  Cl  Cl41  1  0.72045095  0.97450920  0.83878808  1
  Cl  Cl42  1  0.50404221  0.67640939  0.99197207  1
  Cl  Cl43  1  0.78049877  0.51720590  0.34302169  1
  Cl  Cl44  1  0.27838660  0.47258137  0.16239089  1
  Cl  Cl45  1  0.00486776  0.82365532  0.50800624  1
  Cl  Cl46  1  0.22023092  0.52567299  0.66106776  1
  Cl  Cl47  1  0.74587250  0.47868385  0.80739874  1
