# generated using pymatgen
data_MgScH10C2(N2Cl3)2
_symmetry_space_group_name_H-M   'P 1'
_cell_length_a   8.93745337
_cell_length_b   8.44332825
_cell_length_c   9.14524827
_cell_angle_alpha   90.40023666
_cell_angle_beta   78.98302090
_cell_angle_gamma   89.12313379
_symmetry_Int_Tables_number   1
_chemical_formula_structural   MgScH10C2(N2Cl3)2
_chemical_formula_sum   'Mg2 Sc2 H20 C4 N8 Cl12'
_cell_volume   677.28506796
_cell_formula_units_Z   2
loop_
 _symmetry_equiv_pos_site_id
 _symmetry_equiv_pos_as_xyz
  1  'x, y, z'
loop_
 _atom_site_type_symbol
 _atom_site_label
 _atom_site_symmetry_multiplicity
 _atom_site_fract_x
 _atom_site_fract_y
 _atom_site_fract_z
 _atom_site_occupancy
  C  C0  1  0.52056543  0.29591208  0.46441170  1
  C  C1  1  0.98660242  0.27419357  0.01208791  1
  C  C2  1  0.42280868  0.71897329  0.52318629  1
  C  C3  1  0.01530589  0.83187941  0.97255119  1
  N  N4  1  0.51453083  0.33825229  0.60431782  1
  N  N5  1  0.40222848  0.26792208  0.40385435  1
  N  N6  1  0.12241162  0.20651094  0.98642162  1
  N  N7  1  0.92071515  0.33264503  0.14145492  1
  N  N8  1  0.55973962  0.70768642  0.55550063  1
  N  N9  1  0.38847714  0.79201494  0.40813454  1
  N  N10  1  0.35694308  0.62067023  0.86792368  1
  N  N11  1  0.95574841  0.70308768  0.93965869  1
  H  H12  1  0.29311998  0.28696097  0.46037912  1
  H  H13  1  0.61328802  0.36652044  0.63882949  1
  H  H14  1  0.63333571  0.28131153  0.39517592  1
  H  H15  1  0.41780516  0.24321163  0.29250140  1
  H  H16  1  0.46826231  0.84372651  0.32884399  1
  H  H17  1  0.18449110  0.19760571  0.06904351  1
  H  H18  1  0.17430522  0.17137489  0.88119316  1
  H  H19  1  0.92472814  0.28122214  0.92013400  1
  H  H20  1  0.81675051  0.39239084  0.15539745  1
  H  H21  1  0.97474812  0.33501362  0.23062894  1
  H  H22  1  0.65264278  0.75252225  0.48661581  1
  H  H23  1  0.57227627  0.65099527  0.65113610  1
  H  H24  1  0.41312978  0.36647262  0.67343739  1
  H  H25  1  0.27981929  0.78794095  0.38922172  1
  H  H26  1  0.33106031  0.66103947  0.59893941  1
  H  H27  1  0.25766613  0.56304047  0.86414088  1
  H  H28  1  0.34482087  0.73442330  0.83331786  1
  H  H29  1  0.09642928  0.89196969  0.88657203  1
  H  H30  1  0.87851066  0.65852154  0.02833568  1
  H  H31  1  0.98780846  0.88568317  0.08418121  1
  Mg  Mg32  1  0.53053357  0.04322252  0.86148059  1
  Mg  Mg33  1  0.95875732  0.59202992  0.73398696  1
  Sc  Sc34  1  0.91894887  0.04640336  0.48013678  1
  Sc  Sc35  1  0.45974298  0.56468665  0.03734876  1
  Cl  Cl36  1  0.48253368  0.25988751  0.02835135  1
  Cl  Cl37  1  0.14999040  0.05351332  0.30548158  1
  Cl  Cl38  1  0.74514046  0.97831629  0.33111101  1
  Cl  Cl39  1  0.88286101  0.32613364  0.48783950  1
  Cl  Cl40  1  0.34065762  0.01578409  0.72725230  1
  Cl  Cl41  1  0.79400820  0.04152288  0.75381401  1
  Cl  Cl42  1  0.51517489  0.85994522  0.05261132  1
  Cl  Cl43  1  0.65351362  0.56470545  0.20925961  1
  Cl  Cl44  1  0.23046705  0.53242218  0.21753706  1
  Cl  Cl45  1  0.99793552  0.76334959  0.52902121  1
  Cl  Cl46  1  0.15009714  0.40249566  0.68271202  1
  Cl  Cl47  1  0.70858221  0.51394971  0.81463229  1
