# generated using pymatgen
data_CaMgH10C2(N2Cl3)2
_symmetry_space_group_name_H-M   'P 1'
_cell_length_a   7.67317723
_cell_length_b   10.34587644
_cell_length_c   7.65873139
_cell_angle_alpha   89.86151306
_cell_angle_beta   90.00188382
_cell_angle_gamma   90.00019015
_symmetry_Int_Tables_number   1
_chemical_formula_structural   CaMgH10C2(N2Cl3)2
_chemical_formula_sum   'Ca2 Mg2 H20 C4 N8 Cl12'
_cell_volume   607.99230938
_cell_formula_units_Z   2
loop_
 _symmetry_equiv_pos_site_id
 _symmetry_equiv_pos_as_xyz
  1  'x, y, z'
loop_
 _atom_site_type_symbol
 _atom_site_label
 _atom_site_symmetry_multiplicity
 _atom_site_fract_x
 _atom_site_fract_y
 _atom_site_fract_z
 _atom_site_occupancy
  C  C0  1  0.49491632  0.29411219  0.49648354  1
  C  C1  1  0.99494789  0.20588747  0.00353378  1
  C  C2  1  0.50485733  0.79410692  0.50321121  1
  C  C3  1  0.00481109  0.70589502  0.99678211  1
  N  N4  1  0.60484687  0.23642016  0.60088427  1
  N  N5  1  0.38933172  0.23615907  0.38829062  1
  N  N6  1  0.10493724  0.26358560  0.89913204  1
  N  N7  1  0.88936737  0.26384432  0.11171769  1
  N  N8  1  0.61017290  0.73614065  0.61200322  1
  N  N9  1  0.39594237  0.73637554  0.39804962  1
  N  N10  1  0.11013037  0.76386508  0.88800430  1
  N  N11  1  0.89586402  0.76360569  0.10193569  1
  H  H12  1  0.49050366  0.39910807  0.50015892  1
  H  H13  1  0.68318752  0.29179782  0.67834133  1
  H  H14  1  0.61480841  0.13855758  0.61313984  1
  H  H15  1  0.30708215  0.29182491  0.31495414  1
  H  H16  1  0.38556718  0.13859754  0.36964988  1
  H  H17  1  0.99052923  0.10089667  0.99982169  1
  H  H18  1  0.18325722  0.20821208  0.82169842  1
  H  H19  1  0.11490564  0.36145086  0.88692122  1
  H  H20  1  0.80710325  0.20817869  0.18502128  1
  H  H21  1  0.88562387  0.36140087  0.13036219  1
  H  H22  1  0.50850815  0.89912036  0.49960510  1
  H  H23  1  0.68738981  0.79190376  0.69014916  1
  H  H24  1  0.62324605  0.63828351  0.62185206  1
  H  H25  1  0.32187042  0.79170677  0.31610394  1
  H  H26  1  0.37754751  0.63882426  0.39487335  1
  H  H27  1  0.00847060  0.60087835  0.00039366  1
  H  H28  1  0.18737088  0.70811473  0.80987514  1
  H  H29  1  0.12319496  0.86172766  0.87816831  1
  H  H30  1  0.82180281  0.70827954  0.18385732  1
  H  H31  1  0.87746149  0.86116459  0.10509510  1
  Mg  Mg32  1  0.49825503  0.00000364  0.99764627  1
  Mg  Mg33  1  0.99826043  0.50000378  0.50237003  1
  Ca  Ca34  1  0.00092379  0.00001057  0.49743209  1
  Ca  Ca35  1  0.50092735  0.49999754  0.00257027  1
  Cl  Cl36  1  0.49958697  0.23559002  0.99640775  1
  Cl  Cl37  1  0.23028224  0.98663613  0.21181697  1
  Cl  Cl38  1  0.71386310  0.01174149  0.26821792  1
  Cl  Cl39  1  0.99955405  0.26441836  0.50362493  1
  Cl  Cl40  1  0.28589884  0.01335748  0.72826690  1
  Cl  Cl41  1  0.77026108  0.98830789  0.78347932  1
  Cl  Cl42  1  0.50116347  0.76444829  0.00270414  1
  Cl  Cl43  1  0.73027298  0.51335565  0.28819070  1
  Cl  Cl44  1  0.21386511  0.48826166  0.23177613  1
  Cl  Cl45  1  0.00120391  0.73555713  0.49726594  1
  Cl  Cl46  1  0.27025755  0.51170491  0.71652830  1
  Cl  Cl47  1  0.78588710  0.48664208  0.77173697  1
