# generated using pymatgen
data_MgSiH10C2(N2Cl3)2
_symmetry_space_group_name_H-M   'P 1'
_cell_length_a   7.98426104
_cell_length_b   9.91885878
_cell_length_c   8.43136949
_cell_angle_alpha   92.23848544
_cell_angle_beta   90.00054437
_cell_angle_gamma   89.99947981
_symmetry_Int_Tables_number   1
_chemical_formula_structural   MgSiH10C2(N2Cl3)2
_chemical_formula_sum   'Mg2 Si2 H20 C4 N8 Cl12'
_cell_volume   667.21073077
_cell_formula_units_Z   2
loop_
 _symmetry_equiv_pos_site_id
 _symmetry_equiv_pos_as_xyz
  1  'x, y, z'
loop_
 _atom_site_type_symbol
 _atom_site_label
 _atom_site_symmetry_multiplicity
 _atom_site_fract_x
 _atom_site_fract_y
 _atom_site_fract_z
 _atom_site_occupancy
  C  C0  1  0.49406183  0.29606140  0.48462864  1
  C  C1  1  0.99404294  0.20393665  0.01536178  1
  C  C2  1  0.50482818  0.79524338  0.48279324  1
  C  C3  1  0.00479824  0.70475987  0.01722758  1
  N  N4  1  0.59316057  0.23342739  0.58098990  1
  N  N5  1  0.38462208  0.24060369  0.38643388  1
  N  N6  1  0.09316652  0.26655938  0.91902737  1
  N  N7  1  0.88462616  0.25940432  0.11357766  1
  N  N8  1  0.60855683  0.73428820  0.57638465  1
  N  N9  1  0.40888560  0.73779971  0.37373200  1
  N  N10  1  0.10855859  0.76569706  0.92361515  1
  N  N11  1  0.90887864  0.76222632  0.12626240  1
  H  H12  1  0.50461359  0.40539699  0.48504811  1
  H  H13  1  0.67528508  0.28748274  0.65097450  1
  H  H14  1  0.59500012  0.13169297  0.59107331  1
  H  H15  1  0.31252835  0.30299197  0.31990241  1
  H  H16  1  0.35950474  0.13967496  0.37742047  1
  H  H17  1  0.00453436  0.09459399  0.01490338  1
  H  H18  1  0.17526257  0.21249522  0.84901876  1
  H  H19  1  0.09507209  0.36830139  0.90899174  1
  H  H20  1  0.81251099  0.19702226  0.18009241  1
  H  H21  1  0.85954855  0.36033919  0.12261565  1
  H  H22  1  0.49765626  0.90453980  0.49674321  1
  H  H23  1  0.67702853  0.79026973  0.65726600  1
  H  H24  1  0.62694949  0.63274754  0.57133652  1
  H  H25  1  0.33122172  0.79851729  0.31053750  1
  H  H26  1  0.40039321  0.63614545  0.35070964  1
  H  H27  1  0.99761332  0.59546513  0.00328136  1
  H  H28  1  0.17701676  0.70969506  0.84275188  1
  H  H29  1  0.12696354  0.86723002  0.92865830  1
  H  H30  1  0.83119912  0.70152528  0.18946840  1
  H  H31  1  0.90040254  0.86388591  0.14927998  1
  Mg  Mg32  1  0.49327339  0.99931548  0.07603224  1
  Mg  Mg33  1  0.99328391  0.50069365  0.42397011  1
  Si  Si34  1  0.00754608  0.96972497  0.53837746  1
  Si  Si35  1  0.50754908  0.53027233  0.96162120  1
  Cl  Cl36  1  0.50027107  0.19508970  0.94303054  1
  Cl  Cl37  1  0.23262818  0.97897614  0.20174713  1
  Cl  Cl38  1  0.70028082  0.01350485  0.27112775  1
  Cl  Cl39  1  0.00026174  0.30491964  0.55697188  1
  Cl  Cl40  1  0.23612082  0.00218868  0.68399893  1
  Cl  Cl41  1  0.82729148  0.98473274  0.73855408  1
  Cl  Cl42  1  0.52832620  0.78117546  0.94755344  1
  Cl  Cl43  1  0.73264359  0.52104016  0.29824168  1
  Cl  Cl44  1  0.20029100  0.48650941  0.22887474  1
  Cl  Cl45  1  0.02834707  0.71883179  0.55244644  1
  Cl  Cl46  1  0.32729235  0.51525451  0.76144312  1
  Cl  Cl47  1  0.73612143  0.49781322  0.81600624  1
