# generated using pymatgen
data_MgAlH10C2(N2Cl3)2
_symmetry_space_group_name_H-M   'P 1'
_cell_length_a   8.06423251
_cell_length_b   9.80421844
_cell_length_c   8.29691256
_cell_angle_alpha   91.82160909
_cell_angle_beta   90.09928351
_cell_angle_gamma   88.82007574
_symmetry_Int_Tables_number   1
_chemical_formula_structural   MgAlH10C2(N2Cl3)2
_chemical_formula_sum   'Mg2 Al2 H20 C4 N8 Cl12'
_cell_volume   655.51201017
_cell_formula_units_Z   2
loop_
 _symmetry_equiv_pos_site_id
 _symmetry_equiv_pos_as_xyz
  1  'x, y, z'
loop_
 _atom_site_type_symbol
 _atom_site_label
 _atom_site_symmetry_multiplicity
 _atom_site_fract_x
 _atom_site_fract_y
 _atom_site_fract_z
 _atom_site_occupancy
  C  C0  1  0.51463476  0.28464820  0.47919693  1
  C  C1  1  0.02193624  0.23639532  0.02895033  1
  C  C2  1  0.50767880  0.79362170  0.48875037  1
  C  C3  1  0.99838781  0.68951331  0.99878191  1
  N  N4  1  0.58282121  0.23388890  0.60812044  1
  N  N5  1  0.38329157  0.23731354  0.40417385  1
  N  N6  1  0.09171774  0.29107261  0.90421197  1
  N  N7  1  0.86635236  0.25293883  0.07188446  1
  N  N8  1  0.61164370  0.73731106  0.58921417  1
  N  N9  1  0.40726504  0.72807340  0.39022604  1
  N  N10  1  0.11003968  0.74259930  0.90561536  1
  N  N11  1  0.91061977  0.75618813  0.10886893  1
  H  H12  1  0.57597354  0.37174469  0.42746351  1
  H  H13  1  0.68253168  0.28317068  0.65719179  1
  H  H14  1  0.52931644  0.16060501  0.67403061  1
  H  H15  1  0.32734214  0.29741865  0.31978494  1
  H  H16  1  0.31402103  0.16138385  0.44886862  1
  H  H17  1  0.09918974  0.16909813  0.10179164  1
  H  H18  1  0.21662279  0.27573512  0.88852476  1
  H  H19  1  0.02792276  0.35473012  0.82891028  1
  H  H20  1  0.81964186  0.19491166  0.16155642  1
  H  H21  1  0.78279149  0.30914064  0.00832684  1
  H  H22  1  0.50589234  0.90439573  0.48471641  1
  H  H23  1  0.68471287  0.79824541  0.65998486  1
  H  H24  1  0.63156653  0.63429717  0.59543217  1
  H  H25  1  0.32551381  0.78499762  0.32356826  1
  H  H26  1  0.38755914  0.62558503  0.39444830  1
  H  H27  1  0.97544838  0.58100035  0.98164643  1
  H  H28  1  0.16659700  0.68150658  0.81739960  1
  H  H29  1  0.14611306  0.84113446  0.92175941  1
  H  H30  1  0.83645025  0.70091209  0.18222011  1
  H  H31  1  0.92092121  0.85809672  0.13474915  1
  Mg  Mg32  1  0.48505109  0.00440483  0.09848621  1
  Mg  Mg33  1  0.00904643  0.52176848  0.48605070  1
  Al  Al34  1  0.01727588  0.99646761  0.60864146  1
  Al  Al35  1  0.48578951  0.54727354  0.00544895  1
  Cl  Cl36  1  0.47748389  0.21295094  0.97558942  1
  Cl  Cl37  1  0.22430033  0.96743603  0.20387158  1
  Cl  Cl38  1  0.70479533  0.01044213  0.27422908  1
  Cl  Cl39  1  0.99395607  0.18226000  0.47894939  1
  Cl  Cl40  1  0.26457097  0.99937908  0.70889301  1
  Cl  Cl41  1  0.82815291  0.99490024  0.79057498  1
  Cl  Cl42  1  0.52251194  0.78879696  0.95759823  1
  Cl  Cl43  1  0.76326217  0.52197985  0.31041161  1
  Cl  Cl44  1  0.18600594  0.48640132  0.25130532  1
  Cl  Cl45  1  0.99828374  0.79881770  0.48282988  1
  Cl  Cl46  1  0.25202417  0.51594913  0.66143006  1
  Cl  Cl47  1  0.82499223  0.47916115  0.71542603  1
