# generated using pymatgen
data_AlBiH10C2(N2Cl3)2
_symmetry_space_group_name_H-M   'P 1'
_cell_length_a   7.72361856
_cell_length_b   11.16029314
_cell_length_c   8.23638156
_cell_angle_alpha   92.02988596
_cell_angle_beta   89.99979981
_cell_angle_gamma   89.99147595
_symmetry_Int_Tables_number   1
_chemical_formula_structural   AlBiH10C2(N2Cl3)2
_chemical_formula_sum   'Al2 Bi2 H20 C4 N8 Cl12'
_cell_volume   709.51284336
_cell_formula_units_Z   2
loop_
 _symmetry_equiv_pos_site_id
 _symmetry_equiv_pos_as_xyz
  1  'x, y, z'
loop_
 _atom_site_type_symbol
 _atom_site_label
 _atom_site_symmetry_multiplicity
 _atom_site_fract_x
 _atom_site_fract_y
 _atom_site_fract_z
 _atom_site_occupancy
  C  C0  1  0.50889902  0.28315941  0.50303082  1
  C  C1  1  0.00883071  0.21684879  0.99698269  1
  C  C2  1  0.52599242  0.78734698  0.51930942  1
  C  C3  1  0.02598405  0.71264951  0.98069404  1
  N  N4  1  0.58284178  0.23191935  0.62617886  1
  N  N5  1  0.36800677  0.24425677  0.42831971  1
  N  N6  1  0.08275800  0.26809653  0.87383639  1
  N  N7  1  0.86791983  0.25574517  0.07170271  1
  N  N8  1  0.62918499  0.74606004  0.63050745  1
  N  N9  1  0.40795137  0.72426944  0.43893876  1
  N  N10  1  0.12915339  0.75395831  0.86947108  1
  N  N11  1  0.90793852  0.77571306  0.06109011  1
  H  H12  1  0.57137216  0.36289800  0.45716085  1
  H  H13  1  0.69311047  0.26904980  0.67326618  1
  H  H14  1  0.53365503  0.15683895  0.67722444  1
  H  H15  1  0.31466998  0.29517842  0.34092399  1
  H  H16  1  0.29407429  0.17548762  0.47046707  1
  H  H17  1  0.07133329  0.13710813  0.04284193  1
  H  H18  1  0.19303551  0.23096320  0.82673737  1
  H  H19  1  0.03355188  0.34318959  0.82280908  1
  H  H20  1  0.81460572  0.20480830  0.15908621  1
  H  H21  1  0.79393115  0.32449813  0.02955684  1
  H  H22  1  0.54076843  0.88116979  0.48978734  1
  H  H23  1  0.71398533  0.80419632  0.68699105  1
  H  H24  1  0.62652884  0.65951342  0.66751856  1
  H  H25  1  0.32553195  0.76707490  0.36378916  1
  H  H26  1  0.37429199  0.64006713  0.47294915  1
  H  H27  1  0.04081331  0.61882404  0.01018938  1
  H  H28  1  0.21396922  0.69582503  0.81297101  1
  H  H29  1  0.12642425  0.84050193  0.83247238  1
  H  H30  1  0.82553848  0.73289566  0.13624190  1
  H  H31  1  0.87424095  0.85991957  0.02710757  1
  Al  Al32  1  0.47532235  0.00245248  0.12223618  1
  Al  Al33  1  0.97535314  0.49753725  0.37774503  1
  Bi  Bi34  1  0.00513935  0.00041484  0.53508627  1
  Bi  Bi35  1  0.50517756  0.49958579  0.96494266  1
  Cl  Cl36  1  0.46149871  0.17165986  0.01123214  1
  Cl  Cl37  1  0.22260157  0.97002240  0.23429124  1
  Cl  Cl38  1  0.68405383  0.03035068  0.30020837  1
  Cl  Cl39  1  0.96155129  0.32834274  0.48877808  1
  Cl  Cl40  1  0.29886525  0.00338819  0.69126483  1
  Cl  Cl41  1  0.82529557  0.99992618  0.80599900  1
  Cl  Cl42  1  0.51668697  0.83475526  1.00017261  1
  Cl  Cl43  1  0.72261451  0.52999973  0.26572885  1
  Cl  Cl44  1  0.18406324  0.46958648  0.19974412  1
  Cl  Cl45  1  0.01673063  0.66524218  0.49976868  1
  Cl  Cl46  1  0.32529867  0.50006840  0.69405408  1
  Cl  Cl47  1  0.79887359  0.49669922  0.80869910  1
