# generated using pymatgen
data_AlTlH10C2(N2Cl3)2
_symmetry_space_group_name_H-M   'P 1'
_cell_length_a   8.13975134
_cell_length_b   10.05005588
_cell_length_c   8.81752616
_cell_angle_alpha   92.47344857
_cell_angle_beta   90.00031066
_cell_angle_gamma   90.00359983
_symmetry_Int_Tables_number   1
_chemical_formula_structural   AlTlH10C2(N2Cl3)2
_chemical_formula_sum   'Al2 Tl2 H20 C4 N8 Cl12'
_cell_volume   720.64530499
_cell_formula_units_Z   2
loop_
 _symmetry_equiv_pos_site_id
 _symmetry_equiv_pos_as_xyz
  1  'x, y, z'
loop_
 _atom_site_type_symbol
 _atom_site_label
 _atom_site_symmetry_multiplicity
 _atom_site_fract_x
 _atom_site_fract_y
 _atom_site_fract_z
 _atom_site_occupancy
  C  C0  1  0.52381277  0.29141559  0.51815635  1
  C  C1  1  0.02381471  0.20859986  0.98183529  1
  C  C2  1  0.51503620  0.80018233  0.52349130  1
  C  C3  1  0.01494890  0.69980637  0.97657810  1
  N  N4  1  0.59121804  0.23559167  0.63486926  1
  N  N5  1  0.39732022  0.24228838  0.44137352  1
  N  N6  1  0.09122114  0.26446376  0.86514836  1
  N  N7  1  0.89732345  0.25769451  0.05863522  1
  N  N8  1  0.60858158  0.75576082  0.63104272  1
  N  N9  1  0.41203445  0.72694527  0.43998272  1
  N  N10  1  0.10843021  0.74419868  0.86895149  1
  N  N11  1  0.91186917  0.77302962  0.05998302  1
  H  H12  1  0.58024855  0.38232813  0.47933880  1
  H  H13  1  0.67985410  0.28874549  0.69470564  1
  H  H14  1  0.53724998  0.15541280  0.68309740  1
  H  H15  1  0.34391602  0.29676980  0.36005132  1
  H  H16  1  0.33427675  0.16283278  0.48251917  1
  H  H17  1  0.08024355  0.11767739  0.02061949  1
  H  H18  1  0.17986413  0.21134112  0.80529900  1
  H  H19  1  0.03726119  0.34465821  0.81695066  1
  H  H20  1  0.84391030  0.20318078  0.13993008  1
  H  H21  1  0.83428347  0.33715740  0.01752838  1
  H  H22  1  0.52499632  0.90519167  0.49939632  1
  H  H23  1  0.67900604  0.82224868  0.69591974  1
  H  H24  1  0.60433157  0.65887467  0.66190979  1
  H  H25  1  0.33842133  0.77314968  0.36502270  1
  H  H26  1  0.37787547  0.63458924  0.47453159  1
  H  H27  1  0.02506329  0.59483655  0.00083791  1
  H  H28  1  0.17891640  0.67772286  0.80413826  1
  H  H29  1  0.10403164  0.84104664  0.83797050  1
  H  H30  1  0.83832826  0.72685122  0.13503265  1
  H  H31  1  0.87761992  0.86533101  0.02531482  1
  Al  Al32  1  0.47657761  0.99869275  0.11086050  1
  Al  Al33  1  0.97668830  0.50131188  0.38914797  1
  Tl  Tl34  1  0.97285725  0.99832586  0.52448496  1
  Tl  Tl35  1  0.47293228  0.50174818  0.97549124  1
  Cl  Cl36  1  0.47294230  0.18361868  0.00037043  1
  Cl  Cl37  1  0.24665391  0.97962657  0.23273162  1
  Cl  Cl38  1  0.68493536  0.01242878  0.26288314  1
  Cl  Cl39  1  0.97300643  0.31641764  0.49969575  1
  Cl  Cl40  1  0.28479163  0.02639611  0.68291473  1
  Cl  Cl41  1  0.81863572  0.98438420  0.81485835  1
  Cl  Cl42  1  0.49461666  0.81824310  0.97646242  1
  Cl  Cl43  1  0.74674849  0.52032907  0.26728801  1
  Cl  Cl44  1  0.18503590  0.48751349  0.23711647  1
  Cl  Cl45  1  0.99478183  0.68182931  0.52342359  1
  Cl  Cl46  1  0.31864982  0.51563066  0.68516122  1
  Cl  Cl47  1  0.78485675  0.47364370  0.81705280  1
