# generated using pymatgen
data_SnH6CI3N
_symmetry_space_group_name_H-M   'P 1'
_cell_length_a   8.57986015
_cell_length_b   12.37385696
_cell_length_c   8.46005596
_cell_angle_alpha   89.99990509
_cell_angle_beta   90.00712968
_cell_angle_gamma   89.99961934
_symmetry_Int_Tables_number   1
_chemical_formula_structural   SnH6CI3N
_chemical_formula_sum   'Sn4 H24 C4 I12 N4'
_cell_volume   898.16997398
_cell_formula_units_Z   4
loop_
 _symmetry_equiv_pos_site_id
 _symmetry_equiv_pos_as_xyz
  1  'x, y, z'
loop_
 _atom_site_type_symbol
 _atom_site_label
 _atom_site_symmetry_multiplicity
 _atom_site_fract_x
 _atom_site_fract_y
 _atom_site_fract_z
 _atom_site_occupancy
  C  C0  1  0.39923632  0.25000992  0.41647661  1
  C  C1  1  0.90012204  0.25000542  0.08431393  1
  C  C2  1  0.60075487  0.74999514  0.58352843  1
  C  C3  1  0.09988353  0.74999207  0.91571626  1
  N  N4  1  0.53820191  0.25000076  0.52126898  1
  N  N5  1  0.03863016  0.24999324  0.97893681  1
  N  N6  1  0.46179464  0.75000409  0.47872901  1
  N  N7  1  0.96137082  0.75000745  0.02109084  1
  H  H8  1  0.43875186  0.25000856  0.29337132  1
  H  H9  1  0.33048214  0.17735422  0.44026883  1
  H  H10  1  0.33048962  0.32265978  0.44027329  1
  H  H11  1  0.60630283  0.18201130  0.49882060  1
  H  H12  1  0.60631042  0.31799390  0.49882359  1
  H  H13  1  0.50848458  0.25000245  0.64094329  1
  H  H14  1  0.94019138  0.25000398  0.20721527  1
  H  H15  1  0.83125220  0.17733886  0.06082784  1
  H  H16  1  0.83125651  0.32266726  0.06082560  1
  H  H17  1  0.10680216  0.18201363  0.00112749  1
  H  H18  1  0.10681209  0.31799144  0.00112789  1
  H  H19  1  0.00844225  0.25000106  0.85937127  1
  H  H20  1  0.56123315  0.74999663  0.70662793  1
  H  H21  1  0.66950490  0.67734665  0.55973455  1
  H  H22  1  0.66950758  0.82265232  0.55973729  1
  H  H23  1  0.39368977  0.81798864  0.50117168  1
  H  H24  1  0.39368647  0.68200610  0.50117107  1
  H  H25  1  0.49151682  0.74999986  0.35905284  1
  H  H26  1  0.05979985  0.74999558  0.79281479  1
  H  H27  1  0.16875052  0.82266167  0.93919450  1
  H  H28  1  0.16874521  0.67733518  0.93919706  1
  H  H29  1  0.89320554  0.81798245  0.99891698  1
  H  H30  1  0.89319854  0.68200901  0.99891795  1
  H  H31  1  0.99157749  0.74999955  0.14067213  1
  Sn  Sn32  1  0.50000768  0.00000483  0.99999273  1
  Sn  Sn33  1  0.99999891  0.50000466  0.50000623  1
  Sn  Sn34  1  0.00000279  0.00000719  0.49999598  1
  Sn  Sn35  1  0.49999870  0.50000509  0.00000181  1
  I  I36  1  0.47580226  0.25000253  0.94168993  1
  I  I37  1  0.18023978  0.01452940  0.17764483  1
  I  I38  1  0.68018601  0.01465009  0.32236028  1
  I  I39  1  0.97550463  0.25000199  0.55857725  1
  I  I40  1  0.31981213  0.98535686  0.67764130  1
  I  I41  1  0.81976366  0.98546985  0.82235784  1
  I  I42  1  0.52421523  0.75000257  0.05830373  1
  I  I43  1  0.68018840  0.48535781  0.32235974  1
  I  I44  1  0.18023883  0.48547254  0.17764952  1
  I  I45  1  0.02450500  0.75000209  0.44144680  1
  I  I46  1  0.31981211  0.51465027  0.67764335  1
  I  I47  1  0.81975945  0.51453235  0.82235930  1
