# generated using pymatgen
data_ScCuH12C2(I3N)2
_symmetry_space_group_name_H-M   'P 1'
_cell_length_a   8.33519916
_cell_length_b   11.30806791
_cell_length_c   8.47860429
_cell_angle_alpha   89.37022862
_cell_angle_beta   89.99154464
_cell_angle_gamma   90.00163559
_symmetry_Int_Tables_number   1
_chemical_formula_structural   ScCuH12C2(I3N)2
_chemical_formula_sum   'Sc2 Cu2 H24 C4 I12 N4'
_cell_volume   799.10254890
_cell_formula_units_Z   2
loop_
 _symmetry_equiv_pos_site_id
 _symmetry_equiv_pos_as_xyz
  1  'x, y, z'
loop_
 _atom_site_type_symbol
 _atom_site_label
 _atom_site_symmetry_multiplicity
 _atom_site_fract_x
 _atom_site_fract_y
 _atom_site_fract_z
 _atom_site_occupancy
  C  C0  1  0.47618636  0.25280032  0.43806966  1
  C  C1  1  0.97640917  0.24716201  0.06184470  1
  C  C2  1  0.51938309  0.75415343  0.56402521  1
  C  C3  1  0.01934555  0.74589078  0.93610180  1
  N  N4  1  0.55075260  0.25084728  0.59673900  1
  N  N5  1  0.05075621  0.24917878  0.90305108  1
  N  N6  1  0.42809910  0.75206009  0.41372967  1
  N  N7  1  0.92814050  0.74797229  0.08645665  1
  H  H8  1  0.57085711  0.25604998  0.34897845  1
  H  H9  1  0.40654042  0.17096323  0.42364442  1
  H  H10  1  0.39781948  0.33023518  0.42746183  1
  H  H11  1  0.62490220  0.17769063  0.61372846  1
  H  H12  1  0.62010082  0.32606154  0.61618279  1
  H  H13  1  0.46629915  0.24805013  0.68675323  1
  H  H14  1  0.07119465  0.24384155  0.15078035  1
  H  H15  1  0.89800589  0.16974926  0.07251016  1
  H  H16  1  0.90682687  0.32901317  0.07646230  1
  H  H17  1  0.12004062  0.17395472  0.88343522  1
  H  H18  1  0.12489508  0.32232436  0.88598932  1
  H  H19  1  0.96616244  0.25201906  0.81318546  1
  H  H20  1  0.43393757  0.75222695  0.66182810  1
  H  H21  1  0.59710351  0.67624075  0.57035044  1
  H  H22  1  0.59164198  0.83497991  0.56752079  1
  H  H23  1  0.35069337  0.82363204  0.40323090  1
  H  H24  1  0.35837511  0.67629436  0.40429442  1
  H  H25  1  0.50166938  0.75482124  0.31459386  1
  H  H26  1  0.93385906  0.74786064  0.83835892  1
  H  H27  1  0.09711035  0.82379134  0.92974873  1
  H  H28  1  0.09156777  0.66505091  0.93252317  1
  H  H29  1  0.85847430  0.82376497  0.09599774  1
  H  H30  1  0.85068687  0.67642743  0.09699547  1
  H  H31  1  0.00175839  0.74516361  0.18554523  1
  Sc  Sc32  1  0.51587874  0.99496891  0.00873133  1
  Sc  Sc33  1  0.01586150  0.50500226  0.49133079  1
  Cu  Cu34  1  0.16814060  0.07745372  0.46530634  1
  Cu  Cu35  1  0.66822410  0.42243551  0.03475875  1
  I  I36  1  0.46839722  0.25266265  0.01232937  1
  I  I37  1  0.20733975  0.98717316  0.19763657  1
  I  I38  1  0.69928837  0.99319382  0.28061242  1
  I  I39  1  0.96840376  0.24731058  0.48755223  1
  I  I40  1  0.27855594  0.00542030  0.72900079  1
  I  I41  1  0.77214883  0.01109169  0.79783168  1
  I  I42  1  0.49540660  0.74917574  0.99607607  1
  I  I43  1  0.70734790  0.51277554  0.30240224  1
  I  I44  1  0.19932574  0.50685437  0.21942251  1
  I  I45  1  0.99535241  0.75080184  0.50402919  1
  I  I46  1  0.27218389  0.48892252  0.70211895  1
  I  I47  1  0.77857337  0.49456371  0.77103983  1
