# generated using pymatgen
data_AlH10AuC2(N2Cl3)2
_symmetry_space_group_name_H-M   'P 1'
_cell_length_a   8.07586225
_cell_length_b   10.31494993
_cell_length_c   8.45151313
_cell_angle_alpha   93.55677756
_cell_angle_beta   90.00118640
_cell_angle_gamma   89.99657686
_symmetry_Int_Tables_number   1
_chemical_formula_structural   AlH10AuC2(N2Cl3)2
_chemical_formula_sum   'Al2 H20 Au2 C4 N8 Cl12'
_cell_volume   702.67282338
_cell_formula_units_Z   2
loop_
 _symmetry_equiv_pos_site_id
 _symmetry_equiv_pos_as_xyz
  1  'x, y, z'
loop_
 _atom_site_type_symbol
 _atom_site_label
 _atom_site_symmetry_multiplicity
 _atom_site_fract_x
 _atom_site_fract_y
 _atom_site_fract_z
 _atom_site_occupancy
  C  C0  1  0.52190338  0.29789874  0.48627178  1
  C  C1  1  0.02185208  0.20211530  0.01376654  1
  C  C2  1  0.51642709  0.77678083  0.49833958  1
  C  C3  1  0.01643956  0.72320444  0.00162702  1
  N  N4  1  0.59990077  0.24114880  0.59919347  1
  N  N5  1  0.38006385  0.25921689  0.42401212  1
  N  N6  1  0.09983693  0.25885200  0.90083057  1
  N  N7  1  0.88000058  0.24079284  0.07600251  1
  N  N8  1  0.60735642  0.72937460  0.60885048  1
  N  N9  1  0.39702023  0.71514911  0.41902072  1
  N  N10  1  0.10741801  0.77062583  0.89117305  1
  N  N11  1  0.89705508  0.78485032  0.08096854  1
  H  H12  1  0.58080454  0.38303339  0.43977487  1
  H  H13  1  0.71249298  0.27615119  0.63591736  1
  H  H14  1  0.55607727  0.16004177  0.64875746  1
  H  H15  1  0.32411889  0.31266381  0.34134442  1
  H  H16  1  0.31939673  0.18020694  0.46430385  1
  H  H17  1  0.08077990  0.11699703  0.06029139  1
  H  H18  1  0.21244579  0.22386181  0.86413157  1
  H  H19  1  0.05598327  0.33994256  0.85124388  1
  H  H20  1  0.82406927  0.18735583  0.15868273  1
  H  H21  1  0.81931388  0.31979442  0.03569634  1
  H  H22  1  0.54515135  0.87522896  0.46708495  1
  H  H23  1  0.68998232  0.79116885  0.66701137  1
  H  H24  1  0.58509473  0.64082366  0.65494531  1
  H  H25  1  0.32699805  0.76525452  0.34312912  1
  H  H26  1  0.35354518  0.62704348  0.44792311  1
  H  H27  1  0.04509790  0.62472319  0.03281075  1
  H  H28  1  0.19001686  0.70881697  0.83298670  1
  H  H29  1  0.08521122  0.85920673  0.84512887  1
  H  H30  1  0.82698878  0.73473503  0.15680797  1
  H  H31  1  0.85364021  0.87299534  0.05213192  1
  Al  Al32  1  0.47553244  0.00037954  0.11971693  1
  Al  Al33  1  0.97551708  0.49963023  0.38027211  1
  Au  Au34  1  0.02966991  0.01028768  0.66682159  1
  Au  Au35  1  0.52960990  0.48970207  0.83318376  1
  Cl  Cl36  1  0.47406187  0.17923887  0.00222842  1
  Cl  Cl37  1  0.23980970  0.97921117  0.23858836  1
  Cl  Cl38  1  0.68465383  0.02161585  0.28330065  1
  Cl  Cl39  1  0.97407504  0.32076637  0.49775274  1
  Cl  Cl40  1  0.31145498  0.02052128  0.64369677  1
  Cl  Cl41  1  0.76130285  0.99239295  0.74569202  1
  Cl  Cl42  1  0.50740589  0.81924794  0.98713802  1
  Cl  Cl43  1  0.73978898  0.52080895  0.26139847  1
  Cl  Cl44  1  0.18464127  0.47838832  0.21669879  1
  Cl  Cl45  1  0.00737140  0.68075627  0.51286458  1
  Cl  Cl46  1  0.26123984  0.50757390  0.75430310  1
  Cl  Cl47  1  0.81140125  0.47948639  0.85628815  1
