# generated using pymatgen
data_AlH10IrC2(N2Cl3)2
_symmetry_space_group_name_H-M   'P 1'
_cell_length_a   7.81925064
_cell_length_b   10.04370416
_cell_length_c   7.80330045
_cell_angle_alpha   90.29555653
_cell_angle_beta   90.00038608
_cell_angle_gamma   89.99253250
_symmetry_Int_Tables_number   1
_chemical_formula_structural   AlH10IrC2(N2Cl3)2
_chemical_formula_sum   'Al2 H20 Ir2 C4 N8 Cl12'
_cell_volume   612.81811317
_cell_formula_units_Z   2
loop_
 _symmetry_equiv_pos_site_id
 _symmetry_equiv_pos_as_xyz
  1  'x, y, z'
loop_
 _atom_site_type_symbol
 _atom_site_label
 _atom_site_symmetry_multiplicity
 _atom_site_fract_x
 _atom_site_fract_y
 _atom_site_fract_z
 _atom_site_occupancy
  C  C0  1  0.49650787  0.29575756  0.49734724  1
  C  C1  1  0.99657923  0.20423671  0.00261288  1
  C  C2  1  0.50411708  0.79589416  0.50383552  1
  C  C3  1  0.00407888  0.70411238  0.99612544  1
  N  N4  1  0.60188508  0.23712987  0.60289494  1
  N  N5  1  0.39401377  0.23633354  0.38923930  1
  N  N6  1  0.10194407  0.26286076  0.89714364  1
  N  N7  1  0.89405373  0.26366956  0.11077959  1
  N  N8  1  0.60956409  0.73657755  0.60858776  1
  N  N9  1  0.39444353  0.73719588  0.40226683  1
  N  N10  1  0.10949555  0.76343158  0.89143160  1
  N  N11  1  0.89436435  0.76281369  0.09773476  1
  H  H12  1  0.49374079  0.40389280  0.49987640  1
  H  H13  1  0.67186984  0.29486975  0.68529890  1
  H  H14  1  0.62358859  0.13701738  0.60494810  1
  H  H15  1  0.32143902  0.29409364  0.30984749  1
  H  H16  1  0.37622668  0.13581795  0.38258351  1
  H  H17  1  0.99376343  0.09611098  0.00004885  1
  H  H18  1  0.17193330  0.20513052  0.81471286  1
  H  H19  1  0.12367062  0.36297242  0.89513459  1
  H  H20  1  0.82145304  0.20590568  0.19011675  1
  H  H21  1  0.87628132  0.36418775  0.11746275  1
  H  H22  1  0.50842474  0.90395826  0.50082564  1
  H  H23  1  0.69265357  0.79423519  0.67779373  1
  H  H24  1  0.61077995  0.63657478  0.63079081  1
  H  H25  1  0.31534202  0.79497681  0.32943757  1
  H  H26  1  0.38658724  0.63663903  0.38511577  1
  H  H27  1  0.00837784  0.59604615  0.99911076  1
  H  H28  1  0.19260077  0.70578143  0.82219045  1
  H  H29  1  0.11070597  0.86344367  0.86925546  1
  H  H30  1  0.81528811  0.70502110  0.17054332  1
  H  H31  1  0.88651375  0.86335994  0.11491921  1
  Al  Al32  1  0.49313078  0.99996636  0.99830048  1
  Al  Al33  1  0.99318168  0.49995776  0.50172740  1
  Ir  Ir34  1  0.00081063  1.00000288  0.49759529  1
  Ir  Ir35  1  0.50079782  0.50000239  0.00241574  1
  Cl  Cl36  1  0.50033018  0.25967331  0.99891602  1
  Cl  Cl37  1  0.18693966  0.98901410  0.25354262  1
  Cl  Cl38  1  0.75768980  0.00852277  0.31154547  1
  Cl  Cl39  1  0.00028474  0.24035619  0.50112253  1
  Cl  Cl40  1  0.24427795  0.01048409  0.68378845  1
  Cl  Cl41  1  0.81523051  0.99179242  0.74085445  1
  Cl  Cl42  1  0.50045398  0.74033678  0.00404802  1
  Cl  Cl43  1  0.68692745  0.51099424  0.24646536  1
  Cl  Cl44  1  0.25767720  0.49152471  0.18846801  1
  Cl  Cl45  1  0.00051905  0.75969129  0.49592821  1
  Cl  Cl46  1  0.31521644  0.50821243  0.75914913  1
  Cl  Cl47  1  0.74426363  0.48948279  0.81622516  1
