# generated using pymatgen
data_BaAlH10C2(N2Cl3)2
_symmetry_space_group_name_H-M   'P 1'
_cell_length_a   8.80330107
_cell_length_b   9.63472803
_cell_length_c   8.75153790
_cell_angle_alpha   84.27564088
_cell_angle_beta   98.21218464
_cell_angle_gamma   95.04761659
_symmetry_Int_Tables_number   1
_chemical_formula_structural   BaAlH10C2(N2Cl3)2
_chemical_formula_sum   'Ba2 Al2 H20 C4 N8 Cl12'
_cell_volume   728.95579202
_cell_formula_units_Z   2
loop_
 _symmetry_equiv_pos_site_id
 _symmetry_equiv_pos_as_xyz
  1  'x, y, z'
loop_
 _atom_site_type_symbol
 _atom_site_label
 _atom_site_symmetry_multiplicity
 _atom_site_fract_x
 _atom_site_fract_y
 _atom_site_fract_z
 _atom_site_occupancy
  C  C0  1  0.57666684  0.24946001  0.52548111  1
  C  C1  1  0.99758803  0.23641183  0.95662507  1
  C  C2  1  0.50677985  0.75620988  0.55864389  1
  C  C3  1  0.00555717  0.74404693  0.94598750  1
  N  N4  1  0.52347091  0.35490496  0.58451647  1
  N  N5  1  0.56020244  0.23217689  0.37689719  1
  N  N6  1  0.13259904  0.18783535  0.94137080  1
  N  N7  1  0.91414812  0.18696020  0.06379316  1
  N  N8  1  0.62696048  0.74612067  0.66499027  1
  N  N9  1  0.37980475  0.67300206  0.55196171  1
  N  N10  1  0.04688365  0.74020258  0.80835908  1
  N  N11  1  0.92762103  0.84252309  0.98572354  1
  H  H12  1  0.46643435  0.42848899  0.51218907  1
  H  H13  1  0.56599626  0.37889094  0.69476395  1
  H  H14  1  0.63594828  0.17523020  0.61251771  1
  H  H15  1  0.60082597  0.13804143  0.36412509  1
  H  H16  1  0.32408427  0.01418123  0.46290722  1
  H  H17  1  0.17215693  0.10249846  0.00799127  1
  H  H18  1  0.19357197  0.23647032  0.85827303  1
  H  H19  1  0.96265020  0.32291149  0.87135807  1
  H  H20  1  0.81514086  0.23930395  0.04374236  1
  H  H21  1  0.87392027  0.42650300  0.23176716  1
  H  H22  1  0.51452593  0.84041876  0.46631750  1
  H  H23  1  0.71615031  0.82245154  0.65807084  1
  H  H24  1  0.63948627  0.66347818  0.75053216  1
  H  H25  1  0.29339666  0.68739863  0.46225468  1
  H  H26  1  0.35449814  0.59940071  0.64218835  1
  H  H27  1  0.03975123  0.66031649  0.03460891  1
  H  H28  1  0.10956533  0.65883718  0.79044821  1
  H  H29  1  0.01667345  0.81609012  0.72095289  1
  H  H30  1  0.90183625  0.83748696  0.09604268  1
  H  H31  1  0.89293751  0.92409136  0.90729857  1
  Al  Al32  1  0.49802810  0.95254576  0.09074261  1
  Al  Al33  1  0.87779488  0.53446192  0.35884520  1
  Ba  Ba34  1  0.98776322  0.18311096  0.37846979  1
  Ba  Ba35  1  0.46411190  0.40983095  0.10569212  1
  Cl  Cl36  1  0.50989789  0.13771410  0.93304179  1
  Cl  Cl37  1  0.30395914  0.96078830  0.21931035  1
  Cl  Cl38  1  0.70336364  0.95095791  0.25658804  1
  Cl  Cl39  1  0.91948591  0.41717451  0.58174410  1
  Cl  Cl40  1  0.26925692  0.02182388  0.59290157  1
  Cl  Cl41  1  0.86704331  0.01007262  0.65024140  1
  Cl  Cl42  1  0.45488954  0.77178013  0.96849288  1
  Cl  Cl43  1  0.64720541  0.60723503  0.32836091  1
  Cl  Cl44  1  0.21773020  0.42266853  0.31058175  1
  Cl  Cl45  1  0.02429356  0.72774727  0.35658408  1
  Cl  Cl46  1  0.25496341  0.48448167  0.81341451  1
  Cl  Cl47  1  0.71239954  0.48532507  0.90239418  1
