# generated using pymatgen
data_AlSbH10C2(N2Cl3)2
_symmetry_space_group_name_H-M   'P 1'
_cell_length_a   7.56968817
_cell_length_b   11.12984470
_cell_length_c   8.38973296
_cell_angle_alpha   92.06207561
_cell_angle_beta   89.99983198
_cell_angle_gamma   89.99860640
_symmetry_Int_Tables_number   1
_chemical_formula_structural   AlSbH10C2(N2Cl3)2
_chemical_formula_sum   'Al2 Sb2 H20 C4 N8 Cl12'
_cell_volume   706.37269642
_cell_formula_units_Z   2
loop_
 _symmetry_equiv_pos_site_id
 _symmetry_equiv_pos_as_xyz
  1  'x, y, z'
loop_
 _atom_site_type_symbol
 _atom_site_label
 _atom_site_symmetry_multiplicity
 _atom_site_fract_x
 _atom_site_fract_y
 _atom_site_fract_z
 _atom_site_occupancy
  C  C0  1  0.51550350  0.28474318  0.50534716  1
  C  C1  1  0.01548347  0.21525690  0.99466020  1
  C  C2  1  0.51736719  0.79224691  0.51769789  1
  C  C3  1  0.01739021  0.70775287  0.98228690  1
  N  N4  1  0.58329021  0.23304564  0.62953830  1
  N  N5  1  0.37792237  0.24524450  0.42318143  1
  N  N6  1  0.08328104  0.26695666  0.87047728  1
  N  N7  1  0.87790565  0.25476259  0.07682900  1
  N  N8  1  0.61497054  0.74981535  0.63167995  1
  N  N9  1  0.41075029  0.72880417  0.42368245  1
  N  N10  1  0.11498274  0.75021109  0.86831869  1
  N  N11  1  0.91075939  0.77117140  0.07632320  1
  H  H12  1  0.58063897  0.36572209  0.46524393  1
  H  H13  1  0.69061025  0.27170611  0.68352497  1
  H  H14  1  0.53016803  0.15763303  0.67679547  1
  H  H15  1  0.32898938  0.29634798  0.33484469  1
  H  H16  1  0.30172838  0.17476852  0.45792967  1
  H  H17  1  0.08060573  0.13426776  0.03475402  1
  H  H18  1  0.19059679  0.22828812  0.81648703  1
  H  H19  1  0.03017238  0.34237841  0.82322927  1
  H  H20  1  0.82896198  0.20365654  0.16515637  1
  H  H21  1  0.80172043  0.32524832  0.04208750  1
  H  H22  1  0.52645739  0.88821653  0.49788884  1
  H  H23  1  0.69251501  0.80825493  0.69749770  1
  H  H24  1  0.61467100  0.66155377  0.66137763  1
  H  H25  1  0.33083649  0.77245060  0.34704064  1
  H  H26  1  0.38333707  0.64070063  0.44263349  1
  H  H27  1  0.02650241  0.61177946  0.00206658  1
  H  H28  1  0.19254121  0.69178739  0.80248660  1
  H  H29  1  0.11465799  0.83847750  0.83864366  1
  H  H30  1  0.83085444  0.72750522  0.15295014  1
  H  H31  1  0.88332929  0.85927848  0.05740516  1
  Al  Al32  1  0.47767212  0.00393643  0.12780084  1
  Al  Al33  1  0.97766657  0.49606413  0.37220447  1
  Sb  Sb34  1  0.00591280  0.00094520  0.55627669  1
  Sb  Sb35  1  0.50590705  0.49905956  0.94372772  1
  Cl  Cl36  1  0.46877126  0.17219259  0.01448723  1
  Cl  Cl37  1  0.22343110  0.98094901  0.24783032  1
  Cl  Cl38  1  0.69565110  0.02515434  0.29711772  1
  Cl  Cl39  1  0.96877708  0.32781201  0.48552789  1
  Cl  Cl40  1  0.29385303  0.00810834  0.70307906  1
  Cl  Cl41  1  0.82723929  0.99499346  0.80916231  1
  Cl  Cl42  1  0.50775355  0.83514046  0.00514822  1
  Cl  Cl43  1  0.72342127  0.51905078  0.25217868  1
  Cl  Cl44  1  0.19563749  0.47483797  0.20287875  1
  Cl  Cl45  1  0.00774044  0.66486259  0.49485008  1
  Cl  Cl46  1  0.32723576  0.50500926  0.69084230  1
  Cl  Cl47  1  0.79384819  0.49191420  0.79692666  1
