# generated using pymatgen
data_AlInH10C2(N2Cl3)2
_symmetry_space_group_name_H-M   'P 1'
_cell_length_a   8.17344723
_cell_length_b   10.05918511
_cell_length_c   8.66109926
_cell_angle_alpha   92.76444930
_cell_angle_beta   90.00030110
_cell_angle_gamma   89.99829383
_symmetry_Int_Tables_number   1
_chemical_formula_structural   AlInH10C2(N2Cl3)2
_chemical_formula_sum   'Al2 In2 H20 C4 N8 Cl12'
_cell_volume   711.27144938
_cell_formula_units_Z   2
loop_
 _symmetry_equiv_pos_site_id
 _symmetry_equiv_pos_as_xyz
  1  'x, y, z'
loop_
 _atom_site_type_symbol
 _atom_site_label
 _atom_site_symmetry_multiplicity
 _atom_site_fract_x
 _atom_site_fract_y
 _atom_site_fract_z
 _atom_site_occupancy
  C  C0  1  0.51792435  0.28948501  0.51005952  1
  C  C1  1  0.01790909  0.21052389  0.98995327  1
  C  C2  1  0.51637673  0.79567364  0.51483831  1
  C  C3  1  0.01640214  0.70431075  0.98513455  1
  N  N4  1  0.59125047  0.22956797  0.62233469  1
  N  N5  1  0.39168902  0.24126662  0.43147620  1
  N  N6  1  0.09125545  0.27044149  0.87769262  1
  N  N7  1  0.89166950  0.25874943  0.06852652  1
  N  N8  1  0.61252811  0.74770252  0.61943930  1
  N  N9  1  0.40704105  0.72687644  0.43260872  1
  N  N10  1  0.11254277  0.75231433  0.88055069  1
  N  N11  1  0.90705727  0.77307955  0.06738961  1
  H  H12  1  0.56885332  0.38401378  0.47659822  1
  H  H13  1  0.68090034  0.28069093  0.68312478  1
  H  H14  1  0.54366244  0.14558539  0.66729189  1
  H  H15  1  0.33466433  0.29854474  0.35373744  1
  H  H16  1  0.33308571  0.15771524  0.46658523  1
  H  H17  1  0.06882433  0.11598614  0.02340977  1
  H  H18  1  0.18091031  0.21931457  0.81690903  1
  H  H19  1  0.04368401  0.35443278  0.83273755  1
  H  H20  1  0.83462895  0.20147029  0.14625120  1
  H  H21  1  0.83307733  0.34231027  0.03341980  1
  H  H22  1  0.53021108  0.90038892  0.49127407  1
  H  H23  1  0.68789109  0.81183242  0.68283529  1
  H  H24  1  0.60471048  0.65141664  0.65169065  1
  H  H25  1  0.33338825  0.77591585  0.35934861  1
  H  H26  1  0.37200310  0.63408057  0.46354200  1
  H  H27  1  0.03025498  0.59958854  0.00866093  1
  H  H28  1  0.18791228  0.68819980  0.81713608  1
  H  H29  1  0.10470065  0.84860688  0.84832614  1
  H  H30  1  0.83341423  0.72401413  0.14063105  1
  H  H31  1  0.87200584  0.86588475  0.03649765  1
  Al  Al32  1  0.47868394  0.99945809  0.10041772  1
  Al  Al33  1  0.97867141  0.50054745  0.39959326  1
  In  In34  1  0.98154985  0.99724723  0.52289662  1
  In  In35  1  0.48153460  0.50277906  0.97712120  1
  Cl  Cl36  1  0.47851064  0.18365094  0.98742010  1
  Cl  Cl37  1  0.24654785  0.97813113  0.21871147  1
  Cl  Cl38  1  0.68064766  0.01656097  0.26205512  1
  Cl  Cl39  1  0.97850877  0.31636789  0.51261608  1
  Cl  Cl40  1  0.27635530  0.02199936  0.67972333  1
  Cl  Cl41  1  0.82584503  0.98414046  0.80207846  1
  Cl  Cl42  1  0.50571966  0.81702744  0.96735881  1
  Cl  Cl43  1  0.74652781  0.52187056  0.28130498  1
  Cl  Cl44  1  0.18062153  0.48342606  0.23794392  1
  Cl  Cl45  1  0.00570652  0.68298770  0.53263049  1
  Cl  Cl46  1  0.32582930  0.51586037  0.69793396  1
  Cl  Cl47  1  0.77633047  0.47802403  0.82028789  1
