# generated using pymatgen
data_AlAgH10C2(N2Cl3)2
_symmetry_space_group_name_H-M   'P 1'
_cell_length_a   8.04860245
_cell_length_b   9.81261447
_cell_length_c   8.41769726
_cell_angle_alpha   91.96853191
_cell_angle_beta   90.00521970
_cell_angle_gamma   90.00639501
_symmetry_Int_Tables_number   1
_chemical_formula_structural   AlAgH10C2(N2Cl3)2
_chemical_formula_sum   'Al2 Ag2 H20 C4 N8 Cl12'
_cell_volume   664.41913752
_cell_formula_units_Z   2
loop_
 _symmetry_equiv_pos_site_id
 _symmetry_equiv_pos_as_xyz
  1  'x, y, z'
loop_
 _atom_site_type_symbol
 _atom_site_label
 _atom_site_symmetry_multiplicity
 _atom_site_fract_x
 _atom_site_fract_y
 _atom_site_fract_z
 _atom_site_occupancy
  C  C0  1  0.52208253  0.30391257  0.50959009  1
  C  C1  1  0.02208932  0.19606685  0.99044322  1
  C  C2  1  0.51162615  0.77931920  0.51913888  1
  C  C3  1  0.01158885  0.72071160  0.98092931  1
  N  N4  1  0.59364316  0.24636187  0.62969207  1
  N  N5  1  0.39212440  0.25471673  0.43242077  1
  N  N6  1  0.09366623  0.25365748  0.87038154  1
  N  N7  1  0.89214828  0.24524258  0.06761586  1
  N  N8  1  0.60995773  0.73171385  0.62752804  1
  N  N9  1  0.40343593  0.70802234  0.43350825  1
  N  N10  1  0.10979633  0.76826235  0.87241133  1
  N  N11  1  0.90329417  0.79201614  0.06638832  1
  H  H12  1  0.57767276  0.39755154  0.46770863  1
  H  H13  1  0.69183083  0.29502914  0.68469068  1
  H  H14  1  0.55154379  0.15745215  0.67536854  1
  H  H15  1  0.33850495  0.30908893  0.34494909  1
  H  H16  1  0.33128118  0.17083608  0.47313695  1
  H  H17  1  0.07764515  0.10240750  0.03228551  1
  H  H18  1  0.19184312  0.20500865  0.81538519  1
  H  H19  1  0.05160800  0.34259123  0.82474315  1
  H  H20  1  0.83850883  0.19083565  0.15504591  1
  H  H21  1  0.83132107  0.32913185  0.02692694  1
  H  H22  1  0.52252110  0.88740699  0.49659756  1
  H  H23  1  0.68442970  0.80089697  0.68945780  1
  H  H24  1  0.61118269  0.63253683  0.66016478  1
  H  H25  1  0.32609479  0.75831993  0.35961740  1
  H  H26  1  0.36913099  0.61240884  0.46428859  1
  H  H27  1  0.02271300  0.61269263  0.00375516  1
  H  H28  1  0.18433502  0.69908531  0.81058220  1
  H  H29  1  0.11079537  0.86738062  0.83954575  1
  H  H30  1  0.82606252  0.74175596  0.14041250  1
  H  H31  1  0.86878068  0.88749698  0.03529043  1
  Al  Al32  1  0.47867386  0.00031721  0.13309996  1
  Al  Al33  1  0.97872423  0.49967219  0.36693910  1
  Ag  Ag34  1  0.00394214  0.00910955  0.58432145  1
  Ag  Ag35  1  0.50406843  0.49104394  0.91558435  1
  Cl  Cl36  1  0.47360707  0.19062908  0.01460428  1
  Cl  Cl37  1  0.23973460  0.97910750  0.25183527  1
  Cl  Cl38  1  0.69203830  0.01790578  0.29267756  1
  Cl  Cl39  1  0.97359615  0.30937763  0.48547589  1
  Cl  Cl40  1  0.29441677  0.02007576  0.67452015  1
  Cl  Cl41  1  0.77977038  0.99208257  0.77510192  1
  Cl  Cl42  1  0.50097248  0.81020911  0.00306610  1
  Cl  Cl43  1  0.73976957  0.52084220  0.24818168  1
  Cl  Cl44  1  0.19207248  0.48204248  0.20738724  1
  Cl  Cl45  1  0.00107304  0.68983074  0.49686875  1
  Cl  Cl46  1  0.27976564  0.50794810  0.72494066  1
  Cl  Cl47  1  0.79453558  0.47995183  0.82549997  1
