# generated using pymatgen
data_AlH10RhC2(N2Cl3)2
_symmetry_space_group_name_H-M   'P 1'
_cell_length_a   6.95248940
_cell_length_b   11.15956142
_cell_length_c   8.03759824
_cell_angle_alpha   88.46548906
_cell_angle_beta   89.99758897
_cell_angle_gamma   90.00100998
_symmetry_Int_Tables_number   1
_chemical_formula_structural   AlH10RhC2(N2Cl3)2
_chemical_formula_sum   'Al2 H20 Rh2 C4 N8 Cl12'
_cell_volume   623.38734214
_cell_formula_units_Z   2
loop_
 _symmetry_equiv_pos_site_id
 _symmetry_equiv_pos_as_xyz
  1  'x, y, z'
loop_
 _atom_site_type_symbol
 _atom_site_label
 _atom_site_symmetry_multiplicity
 _atom_site_fract_x
 _atom_site_fract_y
 _atom_site_fract_z
 _atom_site_occupancy
  C  C0  1  0.50075343  0.29346131  0.52862365  1
  C  C1  1  0.00074260  0.20653443  0.97139673  1
  C  C2  1  0.52943965  0.78314975  0.54474825  1
  C  C3  1  0.02945314  0.71687926  0.95528373  1
  N  N4  1  0.57779801  0.24596943  0.66332203  1
  N  N5  1  0.37933327  0.23883666  0.43051949  1
  N  N6  1  0.07777739  0.25406894  0.83670124  1
  N  N7  1  0.87930110  0.26113894  0.06951905  1
  N  N8  1  0.62657505  0.74964774  0.67696877  1
  N  N9  1  0.43490523  0.71105390  0.44685039  1
  N  N10  1  0.12652261  0.75034032  0.82298801  1
  N  N11  1  0.93482617  0.78897828  0.05308613  1
  H  H12  1  0.54243274  0.38497165  0.49449533  1
  H  H13  1  0.66473631  0.29991806  0.73164788  1
  H  H14  1  0.56166454  0.15789888  0.69938994  1
  H  H15  1  0.32293389  0.28544164  0.33140863  1
  H  H16  1  0.31382256  0.15990028  0.46701371  1
  H  H17  1  0.04244380  0.11503375  0.00549055  1
  H  H18  1  0.16473420  0.20013755  0.76835807  1
  H  H19  1  0.06160054  0.34213185  0.80065846  1
  H  H20  1  0.82291025  0.21450541  0.16862566  1
  H  H21  1  0.81376049  0.34006350  0.03305885  1
  H  H22  1  0.52596263  0.87893686  0.51490267  1
  H  H23  1  0.69738856  0.81656536  0.73781070  1
  H  H24  1  0.64287857  0.66161684  0.71616921  1
  H  H25  1  0.35508266  0.74610697  0.35134008  1
  H  H26  1  0.41699707  0.62252241  0.47803256  1
  H  H27  1  0.02614506  0.62109552  0.98526951  1
  H  H28  1  0.19740395  0.68341261  0.76221730  1
  H  H29  1  0.14268784  0.83834938  0.78368472  1
  H  H30  1  0.85506181  0.75394983  0.14866287  1
  H  H31  1  0.91674954  0.87747708  0.02175881  1
  Al  Al32  1  0.47354805  0.00449257  0.17481826  1
  Al  Al33  1  0.97360099  0.49549286  0.32518337  1
  Rh  Rh34  1  -0.00162602  0.00225024  0.52308713  1
  Rh  Rh35  1  0.49842806  0.49775034  0.97694602  1
  Cl  Cl36  1  0.45516493  0.16804936  0.03614773  1
  Cl  Cl37  1  0.18616181  0.97036617  0.28525279  1
  Cl  Cl38  1  0.72104645  0.03855531  0.34019498  1
  Cl  Cl39  1  0.95520645  0.33195103  0.46388700  1
  Cl  Cl40  1  0.26759289  0.01072176  0.68925519  1
  Cl  Cl41  1  0.80658585  1.00001605  0.75997731  1
  Cl  Cl42  1  0.49889255  0.83881536  0.05256369  1
  Cl  Cl43  1  0.68619839  0.52960393  0.21478632  1
  Cl  Cl44  1  0.22108996  0.46138755  0.15979725  1
  Cl  Cl45  1  0.99896939  0.66119192  0.44737918  1
  Cl  Cl46  1  0.30666890  0.50000632  0.74005464  1
  Cl  Cl47  1  0.76766600  0.48931779  0.81077090  1
