# generated using pymatgen
data_YAlH10C2(N2Cl3)2
_symmetry_space_group_name_H-M   'P 1'
_cell_length_a   7.88241127
_cell_length_b   10.85774143
_cell_length_c   8.00601176
_cell_angle_alpha   91.50687337
_cell_angle_beta   90.00084173
_cell_angle_gamma   90.00183396
_symmetry_Int_Tables_number   1
_chemical_formula_structural   YAlH10C2(N2Cl3)2
_chemical_formula_sum   'Y2 Al2 H20 C4 N8 Cl12'
_cell_volume   684.95902850
_cell_formula_units_Z   2
loop_
 _symmetry_equiv_pos_site_id
 _symmetry_equiv_pos_as_xyz
  1  'x, y, z'
loop_
 _atom_site_type_symbol
 _atom_site_label
 _atom_site_symmetry_multiplicity
 _atom_site_fract_x
 _atom_site_fract_y
 _atom_site_fract_z
 _atom_site_occupancy
  C  C0  1  0.51612623  0.28750729  0.49747142  1
  C  C1  1  0.01616120  0.21251371  0.00254965  1
  C  C2  1  0.49844700  0.79233104  0.50477006  1
  C  C3  1  0.99837045  0.70765828  0.99530719  1
  N  N4  1  0.59293987  0.22796416  0.61606839  1
  N  N5  1  0.39573876  0.24239507  0.40120691  1
  N  N6  1  0.09292820  0.27210345  0.88396431  1
  N  N7  1  0.89573074  0.25756274  0.09880440  1
  N  N8  1  0.60275037  0.74699973  0.61472752  1
  N  N9  1  0.39971391  0.72789738  0.40402811  1
  N  N10  1  0.10260185  0.75296576  0.88526224  1
  N  N11  1  0.89952975  0.77210612  0.09591282  1
  H  H12  1  0.55746364  0.38162915  0.47583643  1
  H  H13  1  0.68333957  0.27264852  0.68556937  1
  H  H14  1  0.56142264  0.14057331  0.64762791  1
  H  H15  1  0.34212045  0.29687344  0.31349260  1
  H  H16  1  0.34940949  0.15499648  0.41075317  1
  H  H17  1  0.05758246  0.11841223  0.02418007  1
  H  H18  1  0.18338282  0.22747744  0.81447673  1
  H  H19  1  0.06132906  0.35947853  0.85241089  1
  H  H20  1  0.84214537  0.20305519  0.18650780  1
  H  H21  1  0.84933851  0.34494239  0.08926876  1
  H  H22  1  0.49311755  0.89216572  0.49577254  1
  H  H23  1  0.67501418  0.80637744  0.68611131  1
  H  H24  1  0.61619411  0.65492929  0.63390330  1
  H  H25  1  0.32255944  0.77317745  0.32393876  1
  H  H26  1  0.39585558  0.63402605  0.40030704  1
  H  H27  1  0.99322286  0.60783167  0.00451717  1
  H  H28  1  0.17494915  0.69358723  0.81397420  1
  H  H29  1  0.11587671  0.84502625  0.86591075  1
  H  H30  1  0.82243290  0.72684241  0.17607466  1
  H  H31  1  0.89547843  0.86597479  0.09941100  1
  Al  Al32  1  0.49947999  0.99811894  0.01920505  1
  Al  Al33  1  0.99959683  0.50188522  0.48079325  1
  Y  Y34  1  0.99506025  0.99965794  0.50935634  1
  Y  Y35  1  0.49507642  0.50034970  0.99061501  1
  Cl  Cl36  1  0.49784412  0.26127723  0.00364018  1
  Cl  Cl37  1  0.20694784  0.98349362  0.24934696  1
  Cl  Cl38  1  0.73199467  0.01175634  0.30390949  1
  Cl  Cl39  1  0.99785764  0.23872906  0.49636218  1
  Cl  Cl40  1  0.26653154  0.01615724  0.70704632  1
  Cl  Cl41  1  0.80482967  0.98878598  0.78091585  1
  Cl  Cl42  1  0.49551316  0.74006335  0.00471859  1
  Cl  Cl43  1  0.70694893  0.51650718  0.25064017  1
  Cl  Cl44  1  0.23206840  0.48824302  0.19614079  1
  Cl  Cl45  1  0.99562185  0.75994284  0.49524256  1
  Cl  Cl46  1  0.30481099  0.51120743  0.71908875  1
  Cl  Cl47  1  0.76656380  0.48385815  0.79296581  1
