# generated using pymatgen
data_SrAlH10C2(N2Cl3)2
_symmetry_space_group_name_H-M   'P 1'
_cell_length_a   8.05131122
_cell_length_b   10.35852731
_cell_length_c   8.37965229
_cell_angle_alpha   91.64496593
_cell_angle_beta   90.89475475
_cell_angle_gamma   90.02330473
_symmetry_Int_Tables_number   1
_chemical_formula_structural   SrAlH10C2(N2Cl3)2
_chemical_formula_sum   'Sr2 Al2 H20 C4 N8 Cl12'
_cell_volume   698.48727534
_cell_formula_units_Z   2
loop_
 _symmetry_equiv_pos_site_id
 _symmetry_equiv_pos_as_xyz
  1  'x, y, z'
loop_
 _atom_site_type_symbol
 _atom_site_label
 _atom_site_symmetry_multiplicity
 _atom_site_fract_x
 _atom_site_fract_y
 _atom_site_fract_z
 _atom_site_occupancy
  C  C0  1  0.51894958  0.29213573  0.50929069  1
  C  C1  1  0.02818796  0.22352432  0.98563924  1
  C  C2  1  0.50150844  0.78562827  0.53098464  1
  C  C3  1  0.00939146  0.69467479  0.97103421  1
  N  N4  1  0.58202134  0.22856658  0.62980221  1
  N  N5  1  0.38687658  0.25668689  0.42562936  1
  N  N6  1  0.07875310  0.26562987  0.84788820  1
  N  N7  1  0.91422321  0.27802698  0.07449566  1
  N  N8  1  0.62206526  0.74043721  0.62092760  1
  N  N9  1  0.41436139  0.71932404  0.42362813  1
  N  N10  1  0.10257914  0.74765047  0.86329035  1
  N  N11  1  0.90672382  0.75607837  0.06622824  1
  H  H12  1  0.58426771  0.37892435  0.47336953  1
  H  H13  1  0.67563309  0.27264397  0.69497845  1
  H  H14  1  0.52105438  0.15210600  0.67724344  1
  H  H15  1  0.33712881  0.31825305  0.34312176  1
  H  H16  1  0.31520756  0.18064330  0.45810393  1
  H  H17  1  0.08739306  0.13640960  0.02971146  1
  H  H18  1  0.16401463  0.21121797  0.78599439  1
  H  H19  1  0.03039506  0.34662394  0.79811360  1
  H  H20  1  0.90166278  0.24967192  0.19051456  1
  H  H21  1  0.85852645  0.36228798  0.04220646  1
  H  H22  1  0.46933689  0.88734590  0.54854636  1
  H  H23  1  0.67795926  0.80249772  0.70351455  1
  H  H24  1  0.65414428  0.64488855  0.62221008  1
  H  H25  1  0.31011802  0.76001507  0.37513713  1
  H  H26  1  0.42751789  0.62207891  0.40508636  1
  H  H27  1  0.01872408  0.59043162  0.98235752  1
  H  H28  1  0.17688364  0.68761066  0.79471701  1
  H  H29  1  0.11186487  0.84514659  0.85084081  1
  H  H30  1  0.84551469  0.70514880  0.15052482  1
  H  H31  1  0.88406865  0.85258478  0.05667178  1
  Al  Al32  1  0.47770361  0.99782698  0.11963813  1
  Al  Al33  1  0.99751253  0.51393169  0.48857444  1
  Sr  Sr34  1  0.95907192  0.99912975  0.54588358  1
  Sr  Sr35  1  0.48476654  0.51446227  0.00134695  1
  Cl  Cl36  1  0.48929734  0.18432018  0.01271062  1
  Cl  Cl37  1  0.23967092  0.98945968  0.23484754  1
  Cl  Cl38  1  0.68311114  0.99057271  0.28910474  1
  Cl  Cl39  1  0.97445104  0.24070198  0.43600593  1
  Cl  Cl40  1  0.27111721  0.02354401  0.69667989  1
  Cl  Cl41  1  0.79611402  0.98294674  0.82785652  1
  Cl  Cl42  1  0.48228386  0.81397628  0.98820552  1
  Cl  Cl43  1  0.70939106  0.52803863  0.26126850  1
  Cl  Cl44  1  0.22586015  0.48276928  0.21435992  1
  Cl  Cl45  1  0.01904136  0.75506369  0.43197921  1
  Cl  Cl46  1  0.30941300  0.51582920  0.71248074  1
  Cl  Cl47  1  0.76415657  0.47259571  0.80736000  1
