# generated using pymatgen
data_AlAsH10C2(N2Cl3)2
_symmetry_space_group_name_H-M   'P 1'
_cell_length_a   7.46089270
_cell_length_b   10.99587735
_cell_length_c   8.32493487
_cell_angle_alpha   90.53627950
_cell_angle_beta   90.00105077
_cell_angle_gamma   90.00106689
_symmetry_Int_Tables_number   1
_chemical_formula_structural   AlAsH10C2(N2Cl3)2
_chemical_formula_sum   'Al2 As2 H20 C4 N8 Cl12'
_cell_volume   682.93992358
_cell_formula_units_Z   2
loop_
 _symmetry_equiv_pos_site_id
 _symmetry_equiv_pos_as_xyz
  1  'x, y, z'
loop_
 _atom_site_type_symbol
 _atom_site_label
 _atom_site_symmetry_multiplicity
 _atom_site_fract_x
 _atom_site_fract_y
 _atom_site_fract_z
 _atom_site_occupancy
  C  C0  1  0.51597855  0.28808318  0.50414641  1
  C  C1  1  0.01602944  0.21190716  0.99584578  1
  C  C2  1  0.50299205  0.79114129  0.51275813  1
  C  C3  1  0.00298733  0.70886101  0.98724188  1
  N  N4  1  0.58752672  0.23100848  0.62578146  1
  N  N5  1  0.38883050  0.24532868  0.41003994  1
  N  N6  1  0.08754663  0.26908058  0.87429524  1
  N  N7  1  0.88887005  0.25458332  0.09002938  1
  N  N8  1  0.60653176  0.74891418  0.62621960  1
  N  N9  1  0.41401467  0.72615076  0.40593364  1
  N  N10  1  0.10645368  0.75111359  0.87375022  1
  N  N11  1  0.91390413  0.77383913  0.09401378  1
  H  H12  1  0.56867365  0.37806211  0.47702491  1
  H  H13  1  0.68586771  0.27404477  0.68953279  1
  H  H14  1  0.54800452  0.14675458  0.66187363  1
  H  H15  1  0.33696757  0.30004522  0.32327424  1
  H  H16  1  0.32417686  0.16509603  0.43100076  1
  H  H17  1  0.06872790  0.12191460  0.02284658  1
  H  H18  1  0.18590476  0.22610921  0.81048673  1
  H  H19  1  0.04800489  0.35335813  0.83829983  1
  H  H20  1  0.83703014  0.19980034  0.17671801  1
  H  H21  1  0.82422975  0.33483459  0.06919111  1
  H  H22  1  0.48955833  0.88952927  0.50534455  1
  H  H23  1  0.67354177  0.80974016  0.69827183  1
  H  H24  1  0.62665702  0.65841399  0.64648219  1
  H  H25  1  0.32803101  0.76948711  0.33056441  1
  H  H26  1  0.40985275  0.63362252  0.40641084  1
  H  H27  1  0.98971547  0.61046999  0.99474550  1
  H  H28  1  0.17355078  0.69030478  0.80173874  1
  H  H29  1  0.12641678  0.84161944  0.85340469  1
  H  H30  1  0.82798371  0.73047736  0.16941036  1
  H  H31  1  0.90959156  0.86636043  0.09344631  1
  Al  Al32  1  0.48349778  0.00170053  0.12404396  1
  Al  Al33  1  0.98356799  0.49827326  0.37596728  1
  As  As34  1  0.00462999  0.99894021  0.56437051  1
  As  As35  1  0.50464471  0.50103973  0.93562656  1
  Cl  Cl36  1  0.48104077  0.17270727  0.00647348  1
  Cl  Cl37  1  0.22789078  0.98444103  0.25188161  1
  Cl  Cl38  1  0.70604503  0.01480319  0.29362075  1
  Cl  Cl39  1  0.98106607  0.32729188  0.49359165  1
  Cl  Cl40  1  0.26953615  0.01582263  0.70918509  1
  Cl  Cl41  1  0.81671844  0.99204009  0.78546078  1
  Cl  Cl42  1  0.50341829  0.83229837  1.00090009  1
  Cl  Cl43  1  0.72796360  0.51549898  0.24809636  1
  Cl  Cl44  1  0.20610244  0.48513653  0.20639037  1
  Cl  Cl45  1  0.00346954  0.66771124  0.49902880  1
  Cl  Cl46  1  0.31672783  0.50803541  0.71455251  1
  Cl  Cl47  1  0.76954753  0.48426660  0.79079155  1
