# generated using pymatgen
data_BaFeH12C2(I3N)2
_symmetry_space_group_name_H-M   'P 1'
_cell_length_a   8.40445824
_cell_length_b   12.02723264
_cell_length_c   8.22474315
_cell_angle_alpha   87.07752413
_cell_angle_beta   90.00249206
_cell_angle_gamma   90.02144120
_symmetry_Int_Tables_number   1
_chemical_formula_structural   BaFeH12C2(I3N)2
_chemical_formula_sum   'Ba2 Fe2 H24 C4 I12 N4'
_cell_volume   830.29524851
_cell_formula_units_Z   2
loop_
 _symmetry_equiv_pos_site_id
 _symmetry_equiv_pos_as_xyz
  1  'x, y, z'
loop_
 _atom_site_type_symbol
 _atom_site_label
 _atom_site_symmetry_multiplicity
 _atom_site_fract_x
 _atom_site_fract_y
 _atom_site_fract_z
 _atom_site_occupancy
  C  C0  1  0.39702526  0.25002936  0.41377189  1
  C  C1  1  0.89805264  0.25005624  0.08724316  1
  C  C2  1  0.60297072  0.74997430  0.58624340  1
  C  C3  1  0.10195353  0.74994565  0.91276731  1
  N  N4  1  0.53877632  0.24853567  0.52067473  1
  N  N5  1  0.03917792  0.25151464  0.97949362  1
  N  N6  1  0.46122063  0.75146946  0.47933837  1
  N  N7  1  0.96082827  0.74848369  0.02051691  1
  H  H8  1  0.43625593  0.25154549  0.28670575  1
  H  H9  1  0.32856168  0.17406337  0.44104480  1
  H  H10  1  0.32551486  0.32348387  0.43660063  1
  H  H11  1  0.60839842  0.17971074  0.49788383  1
  H  H12  1  0.60778558  0.31966691  0.49684953  1
  H  H13  1  0.50869691  0.24413808  0.64432912  1
  H  H14  1  0.93806926  0.24855781  0.21405276  1
  H  H15  1  0.82624003  0.17663297  0.06490265  1
  H  H16  1  0.82960870  0.32607509  0.06044242  1
  H  H17  1  0.10817886  0.18033437  0.00301597  1
  H  H18  1  0.10905790  0.32029543  0.00184817  1
  H  H19  1  0.00845317  0.25585217  0.85602747  1
  H  H20  1  0.56374305  0.74845817  0.71330824  1
  H  H21  1  0.67447944  0.67651798  0.56341164  1
  H  H22  1  0.67143768  0.82593896  0.55896896  1
  H  H23  1  0.39159809  0.82029663  0.50213514  1
  H  H24  1  0.39220857  0.68033966  0.50316563  1
  H  H25  1  0.49129695  0.75586902  0.35568819  1
  H  H26  1  0.06193697  0.75144624  0.78595748  1
  H  H27  1  0.17376557  0.82336844  0.93511129  1
  H  H28  1  0.17039812  0.67392647  0.93956448  1
  H  H29  1  0.89182494  0.81966300  0.99699654  1
  H  H30  1  0.89095109  0.67970192  0.99816155  1
  H  H31  1  0.99155332  0.74414592  0.14398335  1
  Fe  Fe32  1  0.50000284  0.00000305  0.00000894  1
  Fe  Fe33  1  0.99999756  0.50000204  0.50000264  1
  Ba  Ba34  1  0.00000187  0.00000218  0.50000784  1
  Ba  Ba35  1  0.49999781  0.50000447  1.00000137  1
  I  I36  1  0.47622605  0.22194007  0.94526745  1
  I  I37  1  0.21763582  0.00286644  0.15337613  1
  I  I38  1  0.65050054  0.01721735  0.28932932  1
  I  I39  1  0.97570247  0.27803945  0.55519912  1
  I  I40  1  0.34950367  0.98278963  0.71068839  1
  I  I41  1  0.78237044  0.99713683  0.84664108  1
  I  I42  1  0.52378064  0.77806696  0.05475021  1
  I  I43  1  0.71775313  0.49698353  0.34636144  1
  I  I44  1  0.15077158  0.48283415  0.21075962  1
  I  I45  1  0.02429213  0.72196482  0.44481000  1
  I  I46  1  0.28224202  0.50302014  0.65364242  1
  I  I47  1  0.84922479  0.51716943  0.78924565  1
