# generated using pymatgen
data_AlGaH10C2(N2Cl3)2
_symmetry_space_group_name_H-M   'P 1'
_cell_length_a   7.75037528
_cell_length_b   10.57394387
_cell_length_c   7.73335452
_cell_angle_alpha   89.59586197
_cell_angle_beta   90.00027571
_cell_angle_gamma   90.00140151
_symmetry_Int_Tables_number   1
_chemical_formula_structural   AlGaH10C2(N2Cl3)2
_chemical_formula_sum   'Al2 Ga2 H20 C4 N8 Cl12'
_cell_volume   633.74836062
_cell_formula_units_Z   2
loop_
 _symmetry_equiv_pos_site_id
 _symmetry_equiv_pos_as_xyz
  1  'x, y, z'
loop_
 _atom_site_type_symbol
 _atom_site_label
 _atom_site_symmetry_multiplicity
 _atom_site_fract_x
 _atom_site_fract_y
 _atom_site_fract_z
 _atom_site_occupancy
  C  C0  1  0.49506649  0.29356371  0.49610004  1
  C  C1  1  0.99508303  0.20643811  0.00392907  1
  C  C2  1  0.50456416  0.79354705  0.50294121  1
  C  C3  1  0.00452366  0.70644791  0.99705004  1
  N  N4  1  0.60572207  0.23733190  0.59865127  1
  N  N5  1  0.38882402  0.23732326  0.39003454  1
  N  N6  1  0.10579871  0.26267630  0.90136934  1
  N  N7  1  0.88887525  0.26267140  0.10995293  1
  N  N8  1  0.60824828  0.73723719  0.61246602  1
  N  N9  1  0.39791085  0.73737030  0.39720759  1
  N  N10  1  0.10820479  0.76277509  0.88754262  1
  N  N11  1  0.89783489  0.76262022  0.10277507  1
  H  H12  1  0.49068086  0.39637833  0.49947703  1
  H  H13  1  0.68562347  0.29198333  0.67180798  1
  H  H14  1  0.61314329  0.14173201  0.61581103  1
  H  H15  1  0.30465356  0.29229200  0.32107215  1
  H  H16  1  0.38742995  0.14230522  0.36754706  1
  H  H17  1  0.99070601  0.10362590  0.00050637  1
  H  H18  1  0.18568588  0.20802619  0.82822856  1
  H  H19  1  0.11322938  0.35827223  0.88424412  1
  H  H20  1  0.80466550  0.20770723  0.17891594  1
  H  H21  1  0.88747816  0.35769705  0.13247272  1
  H  H22  1  0.50758582  0.89642322  0.49929476  1
  H  H23  1  0.68084783  0.79232184  0.69238280  1
  H  H24  1  0.62613635  0.64169338  0.61997942  1
  H  H25  1  0.32773472  0.79199293  0.31356135  1
  H  H26  1  0.37583735  0.64224951  0.39641190  1
  H  H27  1  0.00755800  0.60357852  0.00070646  1
  H  H28  1  0.18083021  0.70769881  0.80763536  1
  H  H29  1  0.12607769  0.85831838  0.88003347  1
  H  H30  1  0.82766272  0.70798919  0.18641224  1
  H  H31  1  0.87575090  0.85773491  0.10356252  1
  Al  Al32  1  0.49943664  0.00003938  0.99777313  1
  Al  Al33  1  0.99944192  0.49996624  0.50223262  1
  Ga  Ga34  1  0.00169490  0.00006453  0.49635819  1
  Ga  Ga35  1  0.50171177  0.49994691  0.00364064  1
  Cl  Cl36  1  0.49957902  0.21550396  0.99570754  1
  Cl  Cl37  1  0.25456794  0.99064045  0.18839410  1
  Cl  Cl38  1  0.68976040  0.00870306  0.24334436  1
  Cl  Cl39  1  0.99955052  0.28449925  0.50432366  1
  Cl  Cl40  1  0.30966783  0.00931197  0.75271812  1
  Cl  Cl41  1  0.74462422  0.99159680  0.80748518  1
  Cl  Cl42  1  0.50068762  0.78462277  0.00210264  1
  Cl  Cl43  1  0.75456066  0.50935305  0.31161144  1
  Cl  Cl44  1  0.18975612  0.49129175  0.25665715  1
  Cl  Cl45  1  0.00072283  0.71538358  0.49786925  1
  Cl  Cl46  1  0.24462200  0.50841831  0.69252355  1
  Cl  Cl47  1  0.80966112  0.49069836  0.74728017  1
