# generated using pymatgen
data_AlZnH10C2(N2Cl3)2
_symmetry_space_group_name_H-M   'P 1'
_cell_length_a   7.95620510
_cell_length_b   10.15883163
_cell_length_c   8.13020057
_cell_angle_alpha   89.75949530
_cell_angle_beta   90.25493301
_cell_angle_gamma   89.74726455
_symmetry_Int_Tables_number   1
_chemical_formula_structural   AlZnH10C2(N2Cl3)2
_chemical_formula_sum   'Al2 Zn2 H20 C4 N8 Cl12'
_cell_volume   657.11080079
_cell_formula_units_Z   2
loop_
 _symmetry_equiv_pos_site_id
 _symmetry_equiv_pos_as_xyz
  1  'x, y, z'
loop_
 _atom_site_type_symbol
 _atom_site_label
 _atom_site_symmetry_multiplicity
 _atom_site_fract_x
 _atom_site_fract_y
 _atom_site_fract_z
 _atom_site_occupancy
  C  C0  1  0.49436393  0.28716024  0.50217953  1
  C  C1  1  0.00081301  0.20026541  0.00398995  1
  C  C2  1  0.50049548  0.80086507  0.50271680  1
  C  C3  1  0.00017068  0.71351078  0.99796516  1
  N  N4  1  0.60750433  0.23294980  0.59923454  1
  N  N5  1  0.38573928  0.22589942  0.40853652  1
  N  N6  1  0.10668351  0.25852233  0.90506489  1
  N  N7  1  0.88659329  0.25807707  0.09472282  1
  N  N8  1  0.60786325  0.74515492  0.60395676  1
  N  N9  1  0.39770725  0.74084681  0.40186973  1
  N  N10  1  0.10052759  0.77050319  0.89284854  1
  N  N11  1  0.91010258  0.77204015  0.11125980  1
  H  H12  1  0.48881171  0.39430284  0.50076003  1
  H  H13  1  0.68585836  0.29323451  0.66459815  1
  H  H14  1  0.61991776  0.13399421  0.61894473  1
  H  H15  1  0.31068488  0.28137021  0.33296788  1
  H  H16  1  0.38715546  0.12705860  0.38637253  1
  H  H17  1  0.00953602  0.09357085  0.01282139  1
  H  H18  1  0.19635141  0.20206894  0.84901210  1
  H  H19  1  0.11260808  0.35789019  0.88753121  1
  H  H20  1  0.80150845  0.20049232  0.15547717  1
  H  H21  1  0.86026223  0.35619570  0.08692803  1
  H  H22  1  0.49613240  0.90792533  0.50211088  1
  H  H23  1  0.67655002  0.80404885  0.68097219  1
  H  H24  1  0.62486154  0.64585870  0.61521386  1
  H  H25  1  0.32635591  0.79703806  0.32290880  1
  H  H26  1  0.38902444  0.64121867  0.39263797  1
  H  H27  1  0.99014007  0.60699956  0.99035762  1
  H  H28  1  0.17027942  0.71144289  0.81701538  1
  H  H29  1  0.12400756  0.86918086  0.88980429  1
  H  H30  1  0.82777091  0.71657952  0.17776866  1
  H  H31  1  0.90070346  0.87158026  0.12371801  1
  Al  Al32  1  0.50378327  0.95298348  0.00276030  1
  Al  Al33  1  0.98441396  0.50251582  0.40670670  1
  Zn  Zn34  1  0.00046969  0.00234486  0.49145286  1
  Zn  Zn35  1  0.51197737  0.48308316  0.90151799  1
  Cl  Cl36  1  0.48730278  0.29910375  0.04249656  1
  Cl  Cl37  1  0.27017595  0.97875919  0.16976901  1
  Cl  Cl38  1  0.66501284  0.01010173  0.22325244  1
  Cl  Cl39  1  0.00216542  0.31749567  0.52963047  1
  Cl  Cl40  1  0.33953228  0.01158845  0.78414672  1
  Cl  Cl41  1  0.73470554  0.98079245  0.83599073  1
  Cl  Cl42  1  0.50503474  0.73194337  0.01606260  1
  Cl  Cl43  1  0.73713243  0.51375584  0.28937040  1
  Cl  Cl44  1  0.18524939  0.49144368  0.22586581  1
  Cl  Cl45  1  0.00547808  0.68990223  0.52140418  1
  Cl  Cl46  1  0.29980632  0.52335236  0.72993329  1
  Cl  Cl47  1  0.77069499  0.49305067  0.79747875  1
