# generated using pymatgen
data_AlCuH10C2(N2Cl3)2
_symmetry_space_group_name_H-M   'P 1'
_cell_length_a   7.89677925
_cell_length_b   10.24701672
_cell_length_c   8.42751977
_cell_angle_alpha   92.27830912
_cell_angle_beta   90.00340172
_cell_angle_gamma   90.00747964
_symmetry_Int_Tables_number   1
_chemical_formula_structural   AlCuH10C2(N2Cl3)2
_chemical_formula_sum   'Al2 Cu2 H20 C4 N8 Cl12'
_cell_volume   681.40258897
_cell_formula_units_Z   2
loop_
 _symmetry_equiv_pos_site_id
 _symmetry_equiv_pos_as_xyz
  1  'x, y, z'
loop_
 _atom_site_type_symbol
 _atom_site_label
 _atom_site_symmetry_multiplicity
 _atom_site_fract_x
 _atom_site_fract_y
 _atom_site_fract_z
 _atom_site_occupancy
  C  C0  1  0.52011331  0.29820257  0.50224235  1
  C  C1  1  0.02021056  0.20181143  0.99777170  1
  C  C2  1  0.51018050  0.78355444  0.50451768  1
  C  C3  1  0.01008197  0.71646036  0.99556108  1
  N  N4  1  0.59230500  0.24080164  0.62094021  1
  N  N5  1  0.38840822  0.25307443  0.42255869  1
  N  N6  1  0.09234447  0.25923949  0.87906502  1
  N  N7  1  0.88847666  0.24686803  0.07744270  1
  N  N8  1  0.60912663  0.73421819  0.61109866  1
  N  N9  1  0.40250471  0.71842113  0.41261836  1
  N  N10  1  0.10893181  0.76574329  0.88885944  1
  N  N11  1  0.90235632  0.78162216  0.08733778  1
  H  H12  1  0.57621946  0.38953664  0.46532891  1
  H  H13  1  0.69492394  0.28408537  0.67468690  1
  H  H14  1  0.55141719  0.15415139  0.66291221  1
  H  H15  1  0.33570967  0.30755636  0.33648942  1
  H  H16  1  0.32674340  0.17030044  0.45562786  1
  H  H17  1  0.07638430  0.11051523  0.03470507  1
  H  H18  1  0.19500488  0.21602594  0.82534652  1
  H  H19  1  0.05139583  0.34586293  0.83707738  1
  H  H20  1  0.83582119  0.19236930  0.16351991  1
  H  H21  1  0.82676111  0.32960663  0.04436284  1
  H  H22  1  0.52004846  0.88824764  0.48926029  1
  H  H23  1  0.68566000  0.79772200  0.67602779  1
  H  H24  1  0.60675531  0.63823548  0.63997289  1
  H  H25  1  0.32499100  0.76925065  0.34052317  1
  H  H26  1  0.37632525  0.62206189  0.42425723  1
  H  H27  1  0.02009910  0.61180596  0.01104248  1
  H  H28  1  0.18551316  0.70223456  0.82401853  1
  H  H29  1  0.10640181  0.86168116  0.85979517  1
  H  H30  1  0.82492656  0.73083481  0.15956153  1
  H  H31  1  0.87603785  0.87792712  0.07545590  1
  Al  Al32  1  0.48005995  0.00132758  0.12112722  1
  Al  Al33  1  0.98012277  0.49865659  0.37888878  1
  Cu  Cu34  1  0.02193966  0.00856399  0.66640132  1
  Cu  Cu35  1  0.52197550  0.49150592  0.83362491  1
  Cl  Cl36  1  0.47605710  0.18303209  0.00346280  1
  Cl  Cl37  1  0.23799448  0.98238926  0.24254548  1
  Cl  Cl38  1  0.69373865  0.01907841  0.28546829  1
  Cl  Cl39  1  0.97606605  0.31696707  0.49657798  1
  Cl  Cl40  1  0.28762133  0.02127175  0.65904464  1
  Cl  Cl41  1  0.77639310  0.98980536  0.75637874  1
  Cl  Cl42  1  0.50492379  0.81908829  0.99184489  1
  Cl  Cl43  1  0.73805012  0.51755096  0.25745273  1
  Cl  Cl44  1  0.19380038  0.48090007  0.21456846  1
  Cl  Cl45  1  0.00503131  0.68093279  0.50809523  1
  Cl  Cl46  1  0.27641268  0.51024707  0.74367846  1
  Cl  Cl47  1  0.78765283  0.47871713  0.84095917  1
