# generated using pymatgen
data_ScAlH10C2(N2Cl3)2
_symmetry_space_group_name_H-M   'P 1'
_cell_length_a   7.80756093
_cell_length_b   10.65095702
_cell_length_c   7.79126519
_cell_angle_alpha   90.25952954
_cell_angle_beta   90.00213913
_cell_angle_gamma   89.99504551
_symmetry_Int_Tables_number   1
_chemical_formula_structural   ScAlH10C2(N2Cl3)2
_chemical_formula_sum   'Sc2 Al2 H20 C4 N8 Cl12'
_cell_volume   647.89934901
_cell_formula_units_Z   2
loop_
 _symmetry_equiv_pos_site_id
 _symmetry_equiv_pos_as_xyz
  1  'x, y, z'
loop_
 _atom_site_type_symbol
 _atom_site_label
 _atom_site_symmetry_multiplicity
 _atom_site_fract_x
 _atom_site_fract_y
 _atom_site_fract_z
 _atom_site_occupancy
  C  C0  1  0.49460995  0.29318031  0.49678961  1
  C  C1  1  0.99466020  0.20682278  0.00321364  1
  C  C2  1  0.50537222  0.79317136  0.50378884  1
  C  C3  1  0.00533011  0.70684076  0.99618620  1
  N  N4  1  0.60136014  0.23739388  0.60118748  1
  N  N5  1  0.39160448  0.23728306  0.38837612  1
  N  N6  1  0.10141962  0.26259390  0.89886931  1
  N  N7  1  0.89164507  0.26271469  0.11163633  1
  N  N8  1  0.61037477  0.73740602  0.60978872  1
  N  N9  1  0.39593954  0.73729993  0.40172021  1
  N  N10  1  0.11033123  0.76260655  0.89022146  1
  N  N11  1  0.89587387  0.76270193  0.09823897  1
  H  H12  1  0.49089723  0.39525719  0.50083572  1
  H  H13  1  0.67385889  0.29141469  0.68169325  1
  H  H14  1  0.61960224  0.14265367  0.60459182  1
  H  H15  1  0.31618459  0.29175735  0.31168726  1
  H  H16  1  0.37905090  0.14223676  0.37715238  1
  H  H17  1  0.99092293  0.10474111  0.99913392  1
  H  H18  1  0.17393051  0.20857437  0.81834740  1
  H  H19  1  0.11969654  0.35734087  0.89549722  1
  H  H20  1  0.81621165  0.20825147  0.18828093  1
  H  H21  1  0.87910760  0.35776510  0.12287530  1
  H  H22  1  0.50976529  0.89521914  0.49991888  1
  H  H23  1  0.69137040  0.79191840  0.68118939  1
  H  H24  1  0.61481117  0.64266727  0.62821420  1
  H  H25  1  0.31917245  0.79120033  0.32582666  1
  H  H26  1  0.38507152  0.64224725  0.38995482  1
  H  H27  1  0.00973813  0.60478818  0.00004387  1
  H  H28  1  0.19134568  0.70810414  0.81882954  1
  H  H29  1  0.11475426  0.85734940  0.87181260  1
  H  H30  1  0.81909764  0.70879359  0.17411236  1
  H  H31  1  0.88497384  0.85775508  0.11001502  1
  Al  Al32  1  0.49816125  0.99994517  0.99699364  1
  Al  Al33  1  0.99817359  0.50006240  0.50302408  1
  Sc  Sc34  1  0.00084808  -0.00000983  0.49801079  1
  Sc  Sc35  1  0.50084211  0.50001208  0.00199208  1
  Cl  Cl36  1  0.49862139  0.27042043  0.99667040  1
  Cl  Cl37  1  0.19747239  0.98781410  0.24115304  1
  Cl  Cl38  1  0.74352176  0.01211981  0.30186603  1
  Cl  Cl39  1  0.99859130  0.22957880  0.50337248  1
  Cl  Cl40  1  0.25711450  0.01257428  0.69533902  1
  Cl  Cl41  1  0.80461455  0.98728283  0.75535355  1
  Cl  Cl42  1  0.50061857  0.72965254  0.00479527  1
  Cl  Cl43  1  0.69745234  0.51218586  0.25886115  1
  Cl  Cl44  1  0.24351859  0.48789786  0.19812603  1
  Cl  Cl45  1  0.00069288  0.77035036  0.49519163  1
  Cl  Cl46  1  0.30459335  0.51272147  0.74464661  1
  Cl  Cl47  1  0.75709804  0.48740431  0.80467954  1
