# generated using pymatgen
data_CaAlH10C2(N2Cl3)2
_symmetry_space_group_name_H-M   'P 1'
_cell_length_a   8.00708036
_cell_length_b   10.25173347
_cell_length_c   8.21254689
_cell_angle_alpha   92.39070554
_cell_angle_beta   90.18491502
_cell_angle_gamma   89.95132009
_symmetry_Int_Tables_number   1
_chemical_formula_structural   CaAlH10C2(N2Cl3)2
_chemical_formula_sum   'Ca2 Al2 H20 C4 N8 Cl12'
_cell_volume   673.54840580
_cell_formula_units_Z   2
loop_
 _symmetry_equiv_pos_site_id
 _symmetry_equiv_pos_as_xyz
  1  'x, y, z'
loop_
 _atom_site_type_symbol
 _atom_site_label
 _atom_site_symmetry_multiplicity
 _atom_site_fract_x
 _atom_site_fract_y
 _atom_site_fract_z
 _atom_site_occupancy
  C  C0  1  0.51906179  0.29311047  0.50915327  1
  C  C1  1  0.01652142  0.21511307  0.98324516  1
  C  C2  1  0.50998723  0.78304223  0.52425133  1
  C  C3  1  0.01292622  0.70372531  0.97893790  1
  N  N4  1  0.59290593  0.23064084  0.62568141  1
  N  N5  1  0.38640890  0.25125098  0.42864173  1
  N  N6  1  0.08703986  0.26871632  0.85834734  1
  N  N7  1  0.89706014  0.26757730  0.07267070  1
  N  N8  1  0.62025532  0.73193198  0.62085872  1
  N  N9  1  0.40060514  0.71829083  0.43303463  1
  N  N10  1  0.10669140  0.75152914  0.86500790  1
  N  N11  1  0.89566223  0.76793770  0.05932060  1
  H  H12  1  0.57501241  0.38465282  0.47299983  1
  H  H13  1  0.68935897  0.27613926  0.68678826  1
  H  H14  1  0.54559945  0.14683124  0.67037121  1
  H  H15  1  0.32944300  0.31079395  0.34724115  1
  H  H16  1  0.32323543  0.17060535  0.46392471  1
  H  H17  1  0.06218222  0.11915815  0.01490200  1
  H  H18  1  0.17611496  0.21629922  0.79489057  1
  H  H19  1  0.05520655  0.35920041  0.82110310  1
  H  H20  1  0.86529537  0.22631640  0.17933958  1
  H  H21  1  0.85199728  0.35907000  0.05321995  1
  H  H22  1  0.50956563  0.88891773  0.51832804  1
  H  H23  1  0.69684320  0.79487854  0.68698968  1
  H  H24  1  0.62686682  0.63449259  0.64290791  1
  H  H25  1  0.30947349  0.76789439  0.37428929  1
  H  H26  1  0.38544721  0.61964278  0.43632065  1
  H  H27  1  0.03638911  0.60313566  0.01117048  1
  H  H28  1  0.19108940  0.68994113  0.80653098  1
  H  H29  1  0.10124656  0.84678262  0.83355124  1
  H  H30  1  0.83404968  0.72270722  0.15005647  1
  H  H31  1  0.86029491  0.85953870  0.02861311  1
  Al  Al32  1  0.47806550  -0.00001410  0.11737711  1
  Al  Al33  1  0.99145878  0.51298087  0.49052122  1
  Ca  Ca34  1  0.98553223  0.00363534  0.53209471  1
  Ca  Ca35  1  0.49484680  0.51789421  0.01294230  1
  Cl  Cl36  1  0.48413214  0.18444468  0.00374126  1
  Cl  Cl37  1  0.23563635  0.98440632  0.23186310  1
  Cl  Cl38  1  0.68649522  0.00566149  0.28653069  1
  Cl  Cl39  1  0.97580979  0.24101765  0.44306023  1
  Cl  Cl40  1  0.27384724  0.01754061  0.68896124  1
  Cl  Cl41  1  0.80217842  0.98486331  0.79313902  1
  Cl  Cl42  1  0.49478692  0.81124794  0.98819286  1
  Cl  Cl43  1  0.70998247  0.52535115  0.26189418  1
  Cl  Cl44  1  0.23477488  0.47856430  0.20686680  1
  Cl  Cl45  1  0.99841967  0.76002807  0.43504525  1
  Cl  Cl46  1  0.32169425  0.51255121  0.73620433  1
  Cl  Cl47  1  0.76252145  0.48002557  0.81898156  1
