# generated using pymatgen
data_AlPH10C2(N2Cl3)2
_symmetry_space_group_name_H-M   'P 1'
_cell_length_a   7.14207105
_cell_length_b   11.08470386
_cell_length_c   8.54642633
_cell_angle_alpha   89.23877709
_cell_angle_beta   90.09317083
_cell_angle_gamma   93.00322857
_symmetry_Int_Tables_number   1
_chemical_formula_structural   AlPH10C2(N2Cl3)2
_chemical_formula_sum   'Al2 P2 H20 C4 N8 Cl12'
_cell_volume   675.61209963
_cell_formula_units_Z   2
loop_
 _symmetry_equiv_pos_site_id
 _symmetry_equiv_pos_as_xyz
  1  'x, y, z'
loop_
 _atom_site_type_symbol
 _atom_site_label
 _atom_site_symmetry_multiplicity
 _atom_site_fract_x
 _atom_site_fract_y
 _atom_site_fract_z
 _atom_site_occupancy
  C  C0  1  0.50259303  0.26276387  0.43476135  1
  C  C1  1  0.97285891  0.21917128  0.01904218  1
  C  C2  1  0.51840884  0.80195158  0.54310026  1
  C  C3  1  0.02312168  0.70430605  0.99633390  1
  N  N4  1  0.53811152  0.23343487  0.58101511  1
  N  N5  1  0.38286683  0.20368037  0.34378971  1
  N  N6  1  0.01322906  0.26420770  0.87949584  1
  N  N7  1  0.87267576  0.27101795  0.12485243  1
  N  N8  1  0.59649581  0.73946685  0.65430084  1
  N  N9  1  0.44359497  0.75696267  0.41465248  1
  N  N10  1  0.08450661  0.76274412  0.87042007  1
  N  N11  1  0.99629529  0.75330702  0.13276083  1
  H  H12  1  0.57920615  0.34280083  0.38643059  1
  H  H13  1  0.63377273  0.28490516  0.64266562  1
  H  H14  1  0.47083415  0.16118290  0.63712919  1
  H  H15  1  0.36883508  0.23352597  0.23099856  1
  H  H16  1  0.29420504  0.13013547  0.38239257  1
  H  H17  1  0.02948012  0.13210866  0.04845390  1
  H  H18  1  0.09530365  0.21715042  0.80732016  1
  H  H19  1  0.96552753  0.34464206  0.84003871  1
  H  H20  1  0.84245296  0.22202880  0.22417392  1
  H  H21  1  0.79131006  0.34721108  0.09863712  1
  H  H22  1  0.51524986  0.89926698  0.55925331  1
  H  H23  1  0.65336635  0.78459472  0.74765590  1
  H  H24  1  0.60698796  0.64778691  0.65208139  1
  H  H25  1  0.37056120  0.81169811  0.34333056  1
  H  H26  1  0.43298024  0.66679238  0.39110025  1
  H  H27  1  0.98960919  0.60755964  0.98597787  1
  H  H28  1  0.10659016  0.71563798  0.77066062  1
  H  H29  1  0.11931318  0.85353871  0.86816587  1
  H  H30  1  0.93719051  0.70193417  0.22185944  1
  H  H31  1  0.02737424  0.84259903  0.15331733  1
  Al  Al32  1  0.57229818  0.93302038  0.05796574  1
  Al  Al33  1  0.06242582  0.47373265  0.44885243  1
  P  P34  1  0.04907466  0.01696726  0.51299029  1
  P  P35  1  0.56457439  0.45081217  0.99318002  1
  Cl  Cl36  1  0.46163674  0.26904586  0.95730409  1
  Cl  Cl37  1  0.29087928  0.98760637  0.10627854  1
  Cl  Cl38  1  0.73464431  0.99440165  0.25670934  1
  Cl  Cl39  1  0.98364599  0.28824782  0.50082802  1
  Cl  Cl40  1  0.23063255  0.03195293  0.71748153  1
  Cl  Cl41  1  0.70656870  -0.00269763  0.84624251  1
  Cl  Cl42  1  0.54110246  0.73991598  0.04358637  1
  Cl  Cl43  1  0.80372623  0.55722133  0.38831890  1
  Cl  Cl44  1  0.24397684  0.49728766  0.24937704  1
  Cl  Cl45  1  0.02996798  0.82466984  0.49905897  1
  Cl  Cl46  1  0.21373890  0.54029129  0.65109412  1
  Cl  Cl47  1  0.73621760  0.47747308  0.78466893  1
