# generated using pymatgen
data_AlSiH10C2(N2Cl3)2
_symmetry_space_group_name_H-M   'P 1'
_cell_length_a   7.64972251
_cell_length_b   10.69992015
_cell_length_c   8.64513927
_cell_angle_alpha   84.78094397
_cell_angle_beta   90.10874607
_cell_angle_gamma   87.32703154
_symmetry_Int_Tables_number   1
_chemical_formula_structural   AlSiH10C2(N2Cl3)2
_chemical_formula_sum   'Al2 Si2 H20 C4 N8 Cl12'
_cell_volume   703.90317389
_cell_formula_units_Z   2
loop_
 _symmetry_equiv_pos_site_id
 _symmetry_equiv_pos_as_xyz
  1  'x, y, z'
loop_
 _atom_site_type_symbol
 _atom_site_label
 _atom_site_symmetry_multiplicity
 _atom_site_fract_x
 _atom_site_fract_y
 _atom_site_fract_z
 _atom_site_occupancy
  C  C0  1  0.51785895  0.30976818  0.52341102  1
  C  C1  1  0.03774504  0.26119573  0.09989611  1
  C  C2  1  0.50337729  0.77092392  0.51901107  1
  C  C3  1  0.00925102  0.69791130  0.02547973  1
  N  N4  1  0.44737997  0.23848887  0.43307275  1
  N  N5  1  0.54813562  0.33217509  0.10905762  1
  N  N6  1  0.02496723  0.25141222  0.94910793  1
  N  N7  1  0.90580850  0.28224375  0.19158482  1
  N  N8  1  0.54473614  0.68812902  0.63602230  1
  N  N9  1  0.39950054  0.75166333  0.40365116  1
  N  N10  1  0.14533271  0.70856180  0.93479374  1
  N  N11  1  0.93790955  0.78858705  0.10078695  1
  H  H12  1  0.52880249  0.40935969  0.48336789  1
  H  H13  1  0.57084625  0.27964675  0.63957039  1
  H  H14  1  0.44520010  0.14713478  0.48253466  1
  H  H15  1  0.48746037  0.30702030  0.21377054  1
  H  H16  1  0.53809211  0.26174952  0.03732721  1
  H  H17  1  0.16852344  0.24917228  0.15141858  1
  H  H18  1  0.13678335  0.24837561  0.88538354  1
  H  H19  1  0.91156829  0.27840176  0.89001579  1
  H  H20  1  0.93118945  0.28277190  0.30763644  1
  H  H21  1  0.77319205  0.30069571  0.15483909  1
  H  H22  1  0.56169554  0.86223083  0.51736186  1
  H  H23  1  0.63093364  0.70981194  0.71815962  1
  H  H24  1  0.48956514  0.60239984  0.65544692  1
  H  H25  1  0.36506876  0.82462777  0.32312735  1
  H  H26  1  0.34433989  0.66731756  0.39166438  1
  H  H27  1  0.94833639  0.60731318  0.03785939  1
  H  H28  1  0.19719921  0.63021268  0.88687932  1
  H  H29  1  0.21216930  0.78892085  0.91813161  1
  H  H30  1  0.82873231  0.77120091  0.16476130  1
  H  H31  1  0.98479633  0.87648684  0.09557432  1
  Al  Al32  1  0.48814719  0.98974933  0.05802200  1
  Al  Al33  1  0.98157961  0.51822468  0.45199535  1
  Si  Si34  1  0.99319523  0.92555013  0.51924156  1
  Si  Si35  1  0.51189042  0.48770963  0.02564034  1
  Cl  Cl36  1  0.47003197  0.12887848  0.86512276  1
  Cl  Cl37  1  0.23841079  0.99029486  0.17891772  1
  Cl  Cl38  1  0.68449920  0.01857227  0.22683316  1
  Cl  Cl39  1  0.96738330  0.33193315  0.56581007  1
  Cl  Cl40  1  0.21675936  0.96448017  0.65148275  1
  Cl  Cl41  1  0.80220104  0.95871630  0.69177591  1
  Cl  Cl42  1  0.53060362  0.80730490  0.98116095  1
  Cl  Cl43  1  0.74667113  0.56834633  0.32064303  1
  Cl  Cl44  1  0.20278403  0.51523922  0.29881391  1
  Cl  Cl45  1  0.01727231  0.66904271  0.60187166  1
  Cl  Cl46  1  0.32418888  0.45695118  0.81415222  1
  Cl  Cl47  1  0.74790433  0.48315869  0.86791595  1
