# generated using pymatgen
data_SiH10PbC2(N2Cl3)2
_symmetry_space_group_name_H-M   'P 1'
_cell_length_a   7.79740274
_cell_length_b   10.96857536
_cell_length_c   8.05478984
_cell_angle_alpha   89.65750315
_cell_angle_beta   89.99946388
_cell_angle_gamma   90.00120099
_symmetry_Int_Tables_number   1
_chemical_formula_structural   SiH10PbC2(N2Cl3)2
_chemical_formula_sum   'Si2 H20 Pb2 C4 N8 Cl12'
_cell_volume   688.88486583
_cell_formula_units_Z   2
loop_
 _symmetry_equiv_pos_site_id
 _symmetry_equiv_pos_as_xyz
  1  'x, y, z'
loop_
 _atom_site_type_symbol
 _atom_site_label
 _atom_site_symmetry_multiplicity
 _atom_site_fract_x
 _atom_site_fract_y
 _atom_site_fract_z
 _atom_site_occupancy
  C  C0  1  0.49287177  0.29216676  0.50710133  1
  C  C1  1  0.99287334  0.20789292  0.99289217  1
  C  C2  1  0.50851400  0.79062890  0.50310031  1
  C  C3  1  0.00845412  0.70930472  0.99688784  1
  N  N4  1  0.59338107  0.23889671  0.61573840  1
  N  N5  1  0.39234634  0.23684223  0.40098300  1
  N  N6  1  0.09340945  0.26113309  0.88430241  1
  N  N7  1  0.89232978  0.26324866  0.09901647  1
  N  N8  1  0.60809826  0.73675809  0.61184577  1
  N  N9  1  0.40966642  0.73601065  0.39490347  1
  N  N10  1  0.10802939  0.76313980  0.88816507  1
  N  N11  1  0.90957117  0.76395210  0.10509640  1
  H  H12  1  0.49261225  0.39149387  0.50508742  1
  H  H13  1  0.66903336  0.29336084  0.68825470  1
  H  H14  1  0.60028909  0.14665562  0.63373114  1
  H  H15  1  0.31620839  0.28851674  0.32526315  1
  H  H16  1  0.38545110  0.14437968  0.38986189  1
  H  H17  1  0.99253928  0.10856538  0.99491832  1
  H  H18  1  0.16906957  0.20665232  0.81179448  1
  H  H19  1  0.10039757  0.35337776  0.86630566  1
  H  H20  1  0.81616417  0.21159430  0.17471741  1
  H  H21  1  0.88549289  0.35570893  0.11012942  1
  H  H22  1  0.50791406  0.88998172  0.50236798  1
  H  H23  1  0.67779586  0.78997891  0.69078077  1
  H  H24  1  0.62149749  0.64444989  0.62229791  1
  H  H25  1  0.33829659  0.78758789  0.31503273  1
  H  H26  1  0.39207856  0.64405679  0.39130967  1
  H  H27  1  0.00781359  0.60995202  0.99767103  1
  H  H28  1  0.17773946  0.70990371  0.80924638  1
  H  H29  1  0.12145746  0.85545273  0.87768168  1
  H  H30  1  0.83820044  0.71238935  0.18495873  1
  H  H31  1  0.89201372  0.85590346  0.10864462  1
  Si  Si32  1  0.49546871  0.01091368  0.02608151  1
  Si  Si33  1  0.99546991  0.48910807  0.47394106  1
  Pb  Pb34  1  0.99859898  1.00005322  0.50347346  1
  Pb  Pb35  1  0.49858795  0.49996121  0.99654506  1
  Cl  Cl36  1  0.48452545  0.21436267  0.01010472  1
  Cl  Cl37  1  0.25284483  0.99027494  0.19771153  1
  Cl  Cl38  1  0.69153707  0.01671375  0.25159318  1
  Cl  Cl39  1  0.98451197  0.28566796  0.48989630  1
  Cl  Cl40  1  0.27309231  0.02149362  0.70845663  1
  Cl  Cl41  1  0.78665609  0.98739988  0.76925173  1
  Cl  Cl42  1  0.51149290  0.73776326  0.00578567  1
  Cl  Cl43  1  0.75284128  0.50975832  0.30228104  1
  Cl  Cl44  1  0.19155289  0.48331901  0.24842229  1
  Cl  Cl45  1  0.01155305  0.76225463  0.49417124  1
  Cl  Cl46  1  0.28661552  0.51257044  0.73077924  1
  Cl  Cl47  1  0.77306041  0.47851175  0.79152234  1
