# generated using pymatgen
data_TlSiH10C2(N2Cl3)2
_symmetry_space_group_name_H-M   'P 1'
_cell_length_a   7.76557543
_cell_length_b   10.90853260
_cell_length_c   8.06953938
_cell_angle_alpha   93.21916448
_cell_angle_beta   90.74913230
_cell_angle_gamma   88.14456456
_symmetry_Int_Tables_number   1
_chemical_formula_structural   TlSiH10C2(N2Cl3)2
_chemical_formula_sum   'Tl2 Si2 H20 C4 N8 Cl12'
_cell_volume   682.09912022
_cell_formula_units_Z   2
loop_
 _symmetry_equiv_pos_site_id
 _symmetry_equiv_pos_as_xyz
  1  'x, y, z'
loop_
 _atom_site_type_symbol
 _atom_site_label
 _atom_site_symmetry_multiplicity
 _atom_site_fract_x
 _atom_site_fract_y
 _atom_site_fract_z
 _atom_site_occupancy
  C  C0  1  0.51120693  0.30106032  0.51692770  1
  C  C1  1  0.03193890  0.22811524  0.98729886  1
  C  C2  1  0.51336975  0.78387587  0.49266489  1
  C  C3  1  0.00920895  0.69594013  0.98827773  1
  N  N4  1  0.60003987  0.24089927  0.62748143  1
  N  N5  1  0.39489537  0.25552948  0.41382819  1
  N  N6  1  0.08791142  0.27535501  0.85194531  1
  N  N7  1  0.90355767  0.27371620  0.07692789  1
  N  N8  1  0.58729277  0.72941143  0.61657956  1
  N  N9  1  0.39340283  0.73614965  0.39496719  1
  N  N10  1  0.10210007  0.75490689  0.88608630  1
  N  N11  1  0.90722287  0.74608371  0.10303517  1
  H  H12  1  0.53711307  0.39826423  0.51095701  1
  H  H13  1  0.68824048  0.29002601  0.69753740  1
  H  H14  1  0.58307714  0.15121665  0.65054905  1
  H  H15  1  0.32082194  0.31423545  0.34581237  1
  H  H16  1  0.36396938  0.16535361  0.40434590  1
  H  H17  1  0.09782614  0.14481806  0.02791146  1
  H  H18  1  0.18691079  0.23192729  0.78924371  1
  H  H19  1  0.02854432  0.35128467  0.80380569  1
  H  H20  1  0.88562393  0.24084317  0.19242115  1
  H  H21  1  0.84424662  0.35560344  0.05058541  1
  H  H22  1  0.55513634  0.87521413  0.46598807  1
  H  H23  1  0.67628571  0.77457334  0.68819904  1
  H  H24  1  0.55076636  0.64475298  0.64999768  1
  H  H25  1  0.34500686  0.78572894  0.30064958  1
  H  H26  1  0.34254225  0.65255906  0.41296098  1
  H  H27  1  0.01663971  0.59595256  0.97586080  1
  H  H28  1  0.17539435  0.70300277  0.80081080  1
  H  H29  1  0.11154764  0.84800862  0.89203503  1
  H  H30  1  0.84272325  0.68975343  0.17654014  1
  H  H31  1  0.88070200  0.83829707  0.11822084  1
  Si  Si32  1  0.50546051  0.99546891  0.01591993  1
  Si  Si33  1  0.97830660  0.50797969  0.47428174  1
  Tl  Tl34  1  0.00149387  0.99538802  0.53728183  1
  Tl  Tl35  1  0.46733984  0.49118960  1.00018786  1
  Cl  Cl36  1  0.48970724  0.19594840  0.02227731  1
  Cl  Cl37  1  0.27270992  0.99251779  0.18460622  1
  Cl  Cl38  1  0.68375929  0.00358977  0.23536133  1
  Cl  Cl39  1  0.98515657  0.23451008  0.44869672  1
  Cl  Cl40  1  0.32824636  0.99602488  0.78519737  1
  Cl  Cl41  1  0.73627003  0.99016232  0.84396468  1
  Cl  Cl42  1  0.51044635  0.79482537  0.00390842  1
  Cl  Cl43  1  0.73384305  0.51581132  0.30084953  1
  Cl  Cl44  1  0.16876067  0.48773335  0.25437581  1
  Cl  Cl45  1  0.98639890  0.71696327  0.49061225  1
  Cl  Cl46  1  0.29815423  0.53336300  0.68617897  1
  Cl  Cl47  1  0.77870025  0.47612852  0.80595248  1
