# generated using pymatgen
data_SiHgH10C2(N2Cl3)2
_symmetry_space_group_name_H-M   'P 1'
_cell_length_a   7.84950971
_cell_length_b   10.85653732
_cell_length_c   7.83211867
_cell_angle_alpha   89.42804134
_cell_angle_beta   90.00178646
_cell_angle_gamma   90.00136070
_symmetry_Int_Tables_number   1
_chemical_formula_structural   SiHgH10C2(N2Cl3)2
_chemical_formula_sum   'Si2 Hg2 H20 C4 N8 Cl12'
_cell_volume   667.40811134
_cell_formula_units_Z   2
loop_
 _symmetry_equiv_pos_site_id
 _symmetry_equiv_pos_as_xyz
  1  'x, y, z'
loop_
 _atom_site_type_symbol
 _atom_site_label
 _atom_site_symmetry_multiplicity
 _atom_site_fract_x
 _atom_site_fract_y
 _atom_site_fract_z
 _atom_site_occupancy
  C  C0  1  0.49577670  0.29281925  0.49610392  1
  C  C1  1  0.99580386  0.20718200  0.00390984  1
  C  C2  1  0.50383634  0.79283904  0.50285692  1
  C  C3  1  0.00380129  0.70717552  0.99713486  1
  N  N4  1  0.60626276  0.23841461  0.59707468  1
  N  N5  1  0.38967829  0.23795872  0.39245863  1
  N  N6  1  0.10630696  0.26159004  0.90295850  1
  N  N7  1  0.88971933  0.26204006  0.10754143  1
  N  N8  1  0.60550282  0.73791506  0.61219320  1
  N  N9  1  0.39925006  0.73843639  0.39710283  1
  N  N10  1  0.10546084  0.76210401  0.88780295  1
  N  N11  1  0.89920259  0.76155686  0.10287132  1
  H  H12  1  0.49145196  0.39300873  0.49864767  1
  H  H13  1  0.68507612  0.29197559  0.66856920  1
  H  H14  1  0.61625864  0.14521412  0.61324220  1
  H  H15  1  0.30656367  0.29142762  0.32426694  1
  H  H16  1  0.38583158  0.14510497  0.37243482  1
  H  H17  1  0.99147521  0.10699637  0.00133996  1
  H  H18  1  0.18513200  0.20802479  0.83144999  1
  H  H19  1  0.11633137  0.35479388  0.88679725  1
  H  H20  1  0.80660076  0.20857800  0.17571413  1
  H  H21  1  0.88588941  0.35488797  0.12757612  1
  H  H22  1  0.50663838  0.89306111  0.49938134  1
  H  H23  1  0.67693090  0.79148915  0.69107482  1
  H  H24  1  0.62151534  0.64468633  0.62227866  1
  H  H25  1  0.33026269  0.79200949  0.31465033  1
  H  H26  1  0.37905996  0.64555151  0.39348564  1
  H  H27  1  0.00660722  0.60693687  0.00063629  1
  H  H28  1  0.17689371  0.70854579  0.80894868  1
  H  H29  1  0.12144861  0.85532366  0.87772766  1
  H  H30  1  0.83020029  0.70797282  0.18534125  1
  H  H31  1  0.87898909  0.85443934  0.10649328  1
  Si  Si32  1  0.49955568  0.00002358  0.99798389  1
  Si  Si33  1  0.99956078  0.49997665  0.50202416  1
  Hg  Hg34  1  0.99986819  0.00001054  0.49757223  1
  Hg  Hg35  1  0.49987998  0.49999227  0.00243388  1
  Cl  Cl36  1  0.50032426  0.20082346  0.99591606  1
  Cl  Cl37  1  0.27097447  0.99474826  0.17517863  1
  Cl  Cl38  1  0.67698779  0.00456161  0.22729319  1
  Cl  Cl39  1  0.00030786  0.29917649  0.50410880  1
  Cl  Cl40  1  0.32335209  0.00576016  0.76841846  1
  Cl  Cl41  1  0.72903671  0.99510488  0.82083092  1
  Cl  Cl42  1  0.49999811  0.79924956  0.00117023  1
  Cl  Cl43  1  0.77097604  0.50523732  0.32482514  1
  Cl  Cl44  1  0.17698934  0.49543158  0.27271025  1
  Cl  Cl45  1  0.00003762  0.70075145  0.49881325  1
  Cl  Cl46  1  0.22904781  0.50490866  0.67917569  1
  Cl  Cl47  1  0.82336390  0.49424687  0.73158467  1
