# generated using pymatgen
data_NiHgH12C2(I3N)2
_symmetry_space_group_name_H-M   'P 1'
_cell_length_a   7.69299414
_cell_length_b   11.88405904
_cell_length_c   8.66652408
_cell_angle_alpha   85.56146636
_cell_angle_beta   89.98718112
_cell_angle_gamma   90.00059130
_symmetry_Int_Tables_number   1
_chemical_formula_structural   NiHgH12C2(I3N)2
_chemical_formula_sum   'Ni2 Hg2 H24 C4 I12 N4'
_cell_volume   789.95199967
_cell_formula_units_Z   2
loop_
 _symmetry_equiv_pos_site_id
 _symmetry_equiv_pos_as_xyz
  1  'x, y, z'
loop_
 _atom_site_type_symbol
 _atom_site_label
 _atom_site_symmetry_multiplicity
 _atom_site_fract_x
 _atom_site_fract_y
 _atom_site_fract_z
 _atom_site_occupancy
  C  C0  1  0.46536510  0.24605648  0.39932654  1
  C  C1  1  0.96583639  0.25124715  0.09987701  1
  C  C2  1  0.53436733  0.75121877  0.59988863  1
  C  C3  1  0.03445982  0.74601310  0.89933194  1
  N  N4  1  0.52520900  0.25324239  0.56138687  1
  N  N5  1  0.02927578  0.25093782  0.93791268  1
  N  N6  1  0.47076999  0.75100112  0.43798699  1
  N  N7  1  0.97471624  0.75323587  0.06143692  1
  H  H8  1  0.57885836  0.25151276  0.32327198  1
  H  H9  1  0.39825550  0.16552204  0.39058922  1
  H  H10  1  0.37711454  0.31675126  0.36981693  1
  H  H11  1  0.60618154  0.18667559  0.59784213  1
  H  H12  1  0.59471762  0.32703364  0.57187351  1
  H  H13  1  0.42236673  0.25296720  0.63843568  1
  H  H14  1  0.07822009  0.25321738  0.17677809  1
  H  H15  1  0.89043865  0.17414737  0.12718230  1
  H  H16  1  0.88465572  0.32597357  0.11043333  1
  H  H17  1  0.12299441  0.18902723  0.92874670  1
  H  H18  1  0.08617125  0.32709890  0.89915568  1
  H  H19  1  0.92994304  0.23538169  0.86157247  1
  H  H20  1  0.42210568  0.75324555  0.67693867  1
  H  H21  1  0.60967720  0.67406428  0.62704565  1
  H  H22  1  0.61571374  0.82588716  0.61037018  1
  H  H23  1  0.41406666  0.82724256  0.39932483  1
  H  H24  1  0.37677591  0.68922407  0.42894731  1
  H  H25  1  0.56991412  0.73531166  0.36153342  1
  H  H26  1  0.92084764  0.75132724  0.82342262  1
  H  H27  1  0.12251603  0.81677843  0.86962219  1
  H  H28  1  0.10169808  0.66553459  0.89057388  1
  H  H29  1  0.90500721  0.82692733  0.07192991  1
  H  H30  1  0.89406120  0.68656606  0.09812923  1
  H  H31  1  0.07770702  0.75318189  0.13834087  1
  Ni  Ni32  1  0.50248980  0.99900378  0.00068569  1
  Ni  Ni33  1  0.99750635  0.49901256  0.50068752  1
  Hg  Hg34  1  0.00253202  0.99896371  0.50133889  1
  Hg  Hg35  1  0.49746618  0.49895027  0.00132266  1
  I  I36  1  0.48665006  0.21487083  0.97884054  1
  I  I37  1  0.23299795  0.98744522  0.17235114  1
  I  I38  1  0.72419548  0.99264314  0.30996634  1
  I  I39  1  0.98371709  0.28288537  0.52068861  1
  I  I40  1  0.28219842  0.00586477  0.69085997  1
  I  I41  1  0.77374471  0.01157756  0.83087970  1
  I  I42  1  0.51622502  0.78289191  0.02073952  1
  I  I43  1  0.72630175  0.51162550  0.33086543  1
  I  I44  1  0.21780449  0.50591847  0.19094839  1
  I  I45  1  0.01341928  0.71489237  0.47887524  1
  I  I46  1  0.26695244  0.48742655  0.67236195  1
  I  I47  1  0.77581509  0.49255411  0.80986064  1
