# generated using pymatgen
data_SiH10AuC2(N2Cl3)2
_symmetry_space_group_name_H-M   'P 1'
_cell_length_a   7.01749382
_cell_length_b   11.00912030
_cell_length_c   8.72288043
_cell_angle_alpha   90.66238081
_cell_angle_beta   87.41868648
_cell_angle_gamma   88.93182148
_symmetry_Int_Tables_number   1
_chemical_formula_structural   SiH10AuC2(N2Cl3)2
_chemical_formula_sum   'Si2 H20 Au2 C4 N8 Cl12'
_cell_volume   673.04597168
_cell_formula_units_Z   2
loop_
 _symmetry_equiv_pos_site_id
 _symmetry_equiv_pos_as_xyz
  1  'x, y, z'
loop_
 _atom_site_type_symbol
 _atom_site_label
 _atom_site_symmetry_multiplicity
 _atom_site_fract_x
 _atom_site_fract_y
 _atom_site_fract_z
 _atom_site_occupancy
  C  C0  1  0.53196092  0.29950938  0.50690367  1
  C  C1  1  0.00481250  0.22467502  0.99415293  1
  C  C2  1  0.51335570  0.78259173  0.53339765  1
  C  C3  1  0.00856165  0.69169923  0.98495750  1
  N  N4  1  0.55547410  0.23103122  0.62675039  1
  N  N5  1  0.46153378  0.26450601  0.37697355  1
  N  N6  1  0.02334037  0.25139756  0.84863336  1
  N  N7  1  0.91898887  0.29496227  0.09972694  1
  N  N8  1  0.51214554  0.71391745  0.65521208  1
  N  N9  1  0.45137876  0.75004337  0.39923833  1
  N  N10  1  0.04374347  0.71509724  0.83973327  1
  N  N11  1  0.96868409  0.77364926  0.09233032  1
  H  H12  1  0.57823089  0.39308891  0.51442858  1
  H  H13  1  0.60370537  0.27148139  0.72298700  1
  H  H14  1  0.49647747  0.14674027  0.63780519  1
  H  H15  1  0.44388070  0.32761600  0.29367385  1
  H  H16  1  0.40661302  0.18030882  0.35835139  1
  H  H17  1  0.06470268  0.13832511  0.03129689  1
  H  H18  1  0.09571254  0.19110042  0.77587409  1
  H  H19  1  0.97919189  0.33368391  0.80830666  1
  H  H20  1  0.91715036  0.27127535  0.21267520  1
  H  H21  1  0.85577369  0.37595444  0.07385256  1
  H  H22  1  0.56895389  0.87391512  0.54422070  1
  H  H23  1  0.56401682  0.74723963  0.75411478  1
  H  H24  1  0.45151576  0.62900823  0.65896677  1
  H  H25  1  0.45157788  0.81096022  0.31233643  1
  H  H26  1  0.40074272  0.66575105  0.37524292  1
  H  H27  1  0.01414345  0.59678070  0.01873450  1
  H  H28  1  0.08670242  0.64382291  0.76737228  1
  H  H29  1  0.04435553  0.80158502  0.79718395  1
  H  H30  1  0.94876431  0.75051276  0.20558847  1
  H  H31  1  0.96333947  0.86394586  0.06830068  1
  Si  Si32  1  0.54166703  0.00449267  0.06382380  1
  Si  Si33  1  0.02252733  0.48650343  0.44743105  1
  Au  Au34  1  0.09152316  0.91650262  0.57009062  1
  Au  Au35  1  0.49147006  0.49317673  0.00054528  1
  Cl  Cl36  1  0.48169045  0.18655145  0.00141426  1
  Cl  Cl37  1  0.27900956  0.01509800  0.22260960  1
  Cl  Cl38  1  0.73042281  0.01019623  0.24287444  1
  Cl  Cl39  1  0.99809885  0.28718903  0.46406024  1
  Cl  Cl40  1  0.27267368  0.02965968  0.72532557  1
  Cl  Cl41  1  0.75629442  0.98868567  0.87256010  1
  Cl  Cl42  1  0.46678818  0.82030151  0.01968519  1
  Cl  Cl43  1  0.75821913  0.51471131  0.31077177  1
  Cl  Cl44  1  0.27217191  0.51072458  0.20852077  1
  Cl  Cl45  1  0.93102829  0.76819066  0.45147988  1
  Cl  Cl46  1  0.24379870  0.48286115  0.69870973  1
  Cl  Cl47  1  0.73310520  0.47904242  0.81087961  1
