# generated using pymatgen
data_SiH10PtC2(N2Cl3)2
_symmetry_space_group_name_H-M   'P 1'
_cell_length_a   7.51168275
_cell_length_b   10.23367068
_cell_length_c   8.77953254
_cell_angle_alpha   88.89032335
_cell_angle_beta   90.30995475
_cell_angle_gamma   89.97896472
_symmetry_Int_Tables_number   1
_chemical_formula_structural   SiH10PtC2(N2Cl3)2
_chemical_formula_sum   'Si2 H20 Pt2 C4 N8 Cl12'
_cell_volume   674.76447193
_cell_formula_units_Z   2
loop_
 _symmetry_equiv_pos_site_id
 _symmetry_equiv_pos_as_xyz
  1  'x, y, z'
loop_
 _atom_site_type_symbol
 _atom_site_label
 _atom_site_symmetry_multiplicity
 _atom_site_fract_x
 _atom_site_fract_y
 _atom_site_fract_z
 _atom_site_occupancy
  C  C0  1  0.52656909  0.26439013  0.47148566  1
  C  C1  1  0.02673106  0.23488928  0.02898237  1
  C  C2  1  0.49164383  0.80851496  0.48550495  1
  C  C3  1  0.99068625  0.69255346  0.01466599  1
  N  N4  1  0.51331320  0.25361786  0.62013979  1
  N  N5  1  0.42582518  0.20383143  0.37251950  1
  N  N6  1  0.01421874  0.24600152  0.88018807  1
  N  N7  1  0.92662487  0.29625387  0.12683874  1
  N  N8  1  0.58168315  0.74729277  0.59274882  1
  N  N9  1  0.42733445  0.75462679  0.36179573  1
  N  N10  1  0.07569348  0.75561624  0.90661327  1
  N  N11  1  0.92958131  0.74483362  0.13990101  1
  H  H12  1  0.63042742  0.32875564  0.42673435  1
  H  H13  1  0.59330995  0.30971874  0.68774957  1
  H  H14  1  0.42221338  0.19223652  0.67085098  1
  H  H15  1  0.44341551  0.22318053  0.25821547  1
  H  H16  1  0.31551253  0.15232664  0.40590417  1
  H  H17  1  0.12931667  0.16942542  0.07482399  1
  H  H18  1  0.09402472  0.18965236  0.81338418  1
  H  H19  1  0.92412992  0.30818545  0.82858346  1
  H  H20  1  0.94315670  0.27635320  0.24126751  1
  H  H21  1  0.81697542  0.34850803  0.09228881  1
  H  H22  1  0.46401987  0.91184564  0.50195010  1
  H  H23  1  0.62714100  0.79935404  0.68300472  1
  H  H24  1  0.61842363  0.65119688  0.58832620  1
  H  H25  1  0.35283106  0.81135979  0.28847698  1
  H  H26  1  0.44137698  0.65818925  0.33351141  1
  H  H27  1  0.96464071  0.58908197  0.99745486  1
  H  H28  1  0.12017750  0.70466254  0.81557646  1
  H  H29  1  0.11191179  0.85173445  0.91212226  1
  H  H30  1  0.85682999  0.68727849  0.21297095  1
  H  H31  1  0.94140770  0.84150885  0.16814421  1
  Si  Si32  1  0.58828919  0.89493439  0.05862825  1
  Si  Si33  1  0.09044524  0.59888442  0.44290930  1
  Pt  Pt34  1  0.01890654  0.01347875  0.51013489  1
  Pt  Pt35  1  0.51673266  0.48687605  0.98782814  1
  Cl  Cl36  1  0.51399551  0.26451464  0.01309470  1
  Cl  Cl37  1  0.30988230  0.96906692  0.10165601  1
  Cl  Cl38  1  0.81318338  0.00116644  0.31638995  1
  Cl  Cl39  1  0.01331544  0.23590581  0.48774083  1
  Cl  Cl40  1  0.23294997  0.02111251  0.70423945  1
  Cl  Cl41  1  0.66848233  0.98543390  0.84415840  1
  Cl  Cl42  1  0.48363332  0.70861261  0.93228249  1
  Cl  Cl43  1  0.80918829  0.53035025  0.39820480  1
  Cl  Cl44  1  0.31264149  0.49988699  0.18072077  1
  Cl  Cl45  1  0.99007166  0.79070171  0.56181899  1
  Cl  Cl46  1  0.16566839  0.51328394  0.66153151  1
  Cl  Cl47  1  0.73148657  0.47887728  0.79604173  1
