# generated using pymatgen
data_BaSiH10C2(N2Cl3)2
_symmetry_space_group_name_H-M   'P 1'
_cell_length_a   7.68764066
_cell_length_b   11.01447729
_cell_length_c   8.32174373
_cell_angle_alpha   88.26882638
_cell_angle_beta   89.99794191
_cell_angle_gamma   89.99107953
_symmetry_Int_Tables_number   1
_chemical_formula_structural   BaSiH10C2(N2Cl3)2
_chemical_formula_sum   'Ba2 Si2 H20 C4 N8 Cl12'
_cell_volume   704.32487897
_cell_formula_units_Z   2
loop_
 _symmetry_equiv_pos_site_id
 _symmetry_equiv_pos_as_xyz
  1  'x, y, z'
loop_
 _atom_site_type_symbol
 _atom_site_label
 _atom_site_symmetry_multiplicity
 _atom_site_fract_x
 _atom_site_fract_y
 _atom_site_fract_z
 _atom_site_occupancy
  C  C0  1  0.47555524  0.28038902  0.50883672  1
  C  C1  1  0.97533783  0.21967963  0.99096195  1
  C  C2  1  0.51785916  0.78208410  0.48006392  1
  C  C3  1  0.01776862  0.71792792  0.02013383  1
  N  N4  1  0.59979950  0.22834750  0.59322043  1
  N  N5  1  0.41599914  0.23898491  0.37231930  1
  N  N6  1  0.09951647  0.27182088  0.90664506  1
  N  N7  1  0.91591468  0.26087980  0.12769520  1
  N  N8  1  0.55260410  0.76004548  0.63194378  1
  N  N9  1  0.39058646  0.73147982  0.39943115  1
  N  N10  1  0.05257230  0.74003930  0.86826931  1
  N  N11  1  0.89048995  0.76853234  0.10078022  1
  H  H12  1  0.41652013  0.36257233  0.55597279  1
  H  H13  1  0.63566461  0.26323716  0.70014807  1
  H  H14  1  0.65980971  0.15073160  0.55775412  1
  H  H15  1  0.32818368  0.29173576  0.30861421  1
  H  H16  1  0.47768391  0.16868288  0.31748122  1
  H  H17  1  0.91622163  0.13760789  0.94365099  1
  H  H18  1  0.13502596  0.23724408  0.79939925  1
  H  H19  1  0.15956287  0.34935185  0.94230037  1
  H  H20  1  0.82821320  0.20801865  0.19136055  1
  H  H21  1  0.97764183  0.33107436  0.18265684  1
  H  H22  1  0.59710386  0.85017528  0.41530253  1
  H  H23  1  0.64655195  0.81112742  0.68575131  1
  H  H24  1  0.48379153  0.69580631  0.69791527  1
  H  H25  1  0.38503316  0.74724016  0.27676582  1
  H  H26  1  0.30996226  0.66762569  0.45090105  1
  H  H27  1  0.09698698  0.64978475  0.08484930  1
  H  H28  1  0.14654936  0.68897593  0.81444432  1
  H  H29  1  0.98380471  0.80435021  0.80235381  1
  H  H30  1  0.88483529  0.75265720  0.22341254  1
  H  H31  1  0.80982668  0.83239976  0.04936164  1
  Si  Si32  1  0.48184814  0.01350895  0.97590591  1
  Si  Si33  1  0.98192523  0.48651749  0.52396266  1
  Ba  Ba34  1  0.05705337  0.99980460  0.46675465  1
  Ba  Ba35  1  0.55694713  0.50001965  0.03315606  1
  Cl  Cl36  1  0.50971735  0.23210758  0.97262443  1
  Cl  Cl37  1  0.23715200  0.01567720  0.13618780  1
  Cl  Cl38  1  0.71255528  0.03744794  0.29861279  1
  Cl  Cl39  1  0.00986001  0.26771820  0.52728594  1
  Cl  Cl40  1  0.32432268  0.01541380  0.74069981  1
  Cl  Cl41  1  0.81993811  0.97331972  0.75776144  1
  Cl  Cl42  1  0.46588610  0.75891108  0.02567463  1
  Cl  Cl43  1  0.73729835  0.48436172  0.36361311  1
  Cl  Cl44  1  0.21250249  0.46240228  0.20135212  1
  Cl  Cl45  1  0.96592987  0.74089455  0.47455442  1
  Cl  Cl46  1  0.31988491  0.52672424  0.74214184  1
  Cl  Cl47  1  0.82422159  0.48462403  0.75912026  1
