# generated using pymatgen
data_SiSnH10C2(N2Cl3)2
_symmetry_space_group_name_H-M   'P 1'
_cell_length_a   7.79697944
_cell_length_b   11.01601466
_cell_length_c   8.08034036
_cell_angle_alpha   89.81007210
_cell_angle_beta   89.99949879
_cell_angle_gamma   89.99993723
_symmetry_Int_Tables_number   1
_chemical_formula_structural   SiSnH10C2(N2Cl3)2
_chemical_formula_sum   'Si2 Sn2 H20 C4 N8 Cl12'
_cell_volume   694.02987027
_cell_formula_units_Z   2
loop_
 _symmetry_equiv_pos_site_id
 _symmetry_equiv_pos_as_xyz
  1  'x, y, z'
loop_
 _atom_site_type_symbol
 _atom_site_label
 _atom_site_symmetry_multiplicity
 _atom_site_fract_x
 _atom_site_fract_y
 _atom_site_fract_z
 _atom_site_occupancy
  C  C0  1  0.49184496  0.29175538  0.50779999  1
  C  C1  1  0.99179923  0.20831924  0.99221059  1
  C  C2  1  0.50969579  0.79013271  0.50055623  1
  C  C3  1  0.00959853  0.70979245  -0.00053953  1
  N  N4  1  0.59129848  0.23879271  0.61686000  1
  N  N5  1  0.39220302  0.23682382  0.40080372  1
  N  N6  1  0.09130568  0.26126324  0.88317928  1
  N  N7  1  0.89216694  0.26327719  0.09919209  1
  N  N8  1  0.60844547  0.73657214  0.60949394  1
  N  N9  1  0.41120344  0.73585496  0.39202331  1
  N  N10  1  0.10837668  0.76328665  0.89047464  1
  N  N11  1  0.91114322  0.76411547  0.10796170  1
  H  H12  1  0.49165718  0.39074437  0.50627058  1
  H  H13  1  0.66585635  0.29295953  0.69030477  1
  H  H14  1  0.60028082  0.14690806  0.63316452  1
  H  H15  1  0.31729895  0.28851174  0.32468525  1
  H  H16  1  0.38453118  0.14476749  0.38963729  1
  H  H17  1  0.99154085  0.10933310  0.99372703  1
  H  H18  1  0.16587691  0.20706101  0.80973774  1
  H  H19  1  0.10037998  0.35313872  0.86687472  1
  H  H20  1  0.81722998  0.21162542  0.17528659  1
  H  H21  1  0.88456164  0.35534122  0.11035507  1
  H  H22  1  0.50952040  0.88913631  0.49963440  1
  H  H23  1  0.67889581  0.78964615  0.68761160  1
  H  H24  1  0.61991008  0.64466927  0.62151943  1
  H  H25  1  0.33920887  0.78771402  0.31360868  1
  H  H26  1  0.39492146  0.64415357  0.38623144  1
  H  H27  1  0.00940781  0.61078218  0.00039573  1
  H  H28  1  0.17881776  0.71020985  0.81236800  1
  H  H29  1  0.11986405  0.85523026  0.87842533  1
  H  H30  1  0.83916631  0.71226103  0.18639577  1
  H  H31  1  0.89489936  0.85578330  0.11373791  1
  Si  Si32  1  0.49561139  0.00670666  0.02515746  1
  Si  Si33  1  0.99560928  0.49331029  0.47488027  1
  Sn  Sn34  1  0.99926667  0.00105882  0.50717515  1
  Sn  Sn35  1  0.49925193  0.49895522  0.99285658  1
  Cl  Cl36  1  0.48170394  0.20679878  0.00760799  1
  Cl  Cl37  1  0.25781699  0.98561109  0.19475810  1
  Cl  Cl38  1  0.68984418  0.01330082  0.24363060  1
  Cl  Cl39  1  0.98170072  0.29322512  0.49238672  1
  Cl  Cl40  1  0.26206797  0.01993290  0.70351978  1
  Cl  Cl41  1  0.79152028  0.98774093  0.75835230  1
  Cl  Cl42  1  0.51572728  0.72494879  0.00175544  1
  Cl  Cl43  1  0.75779793  0.51442052  0.30527533  1
  Cl  Cl44  1  0.18983741  0.48674104  0.25638873  1
  Cl  Cl45  1  0.01580241  0.77506449  0.49820183  1
  Cl  Cl46  1  0.29149686  0.51221455  0.74166920  1
  Cl  Cl47  1  0.76205690  0.48007039  0.79650147  1
