# generated using pymatgen
data_CdSiH10C2(N2Cl3)2
_symmetry_space_group_name_H-M   'P 1'
_cell_length_a   7.93163773
_cell_length_b   10.20404845
_cell_length_c   8.31430780
_cell_angle_alpha   87.59692264
_cell_angle_beta   90.00075379
_cell_angle_gamma   90.00017638
_symmetry_Int_Tables_number   1
_chemical_formula_structural   CdSiH10C2(N2Cl3)2
_chemical_formula_sum   'Cd2 Si2 H20 C4 N8 Cl12'
_cell_volume   672.32519235
_cell_formula_units_Z   2
loop_
 _symmetry_equiv_pos_site_id
 _symmetry_equiv_pos_as_xyz
  1  'x, y, z'
loop_
 _atom_site_type_symbol
 _atom_site_label
 _atom_site_symmetry_multiplicity
 _atom_site_fract_x
 _atom_site_fract_y
 _atom_site_fract_z
 _atom_site_occupancy
  C  C0  1  0.49739455  0.29830676  0.52075064  1
  C  C1  1  0.99737017  0.20168366  0.97927039  1
  C  C2  1  0.50553284  0.79351740  0.52331396  1
  C  C3  1  0.00552714  0.70648737  0.97668398  1
  N  N4  1  0.59279650  0.24269770  0.63255174  1
  N  N5  1  0.39044223  0.23847520  0.42895460  1
  N  N6  1  0.09280072  0.25728676  0.86747041  1
  N  N7  1  0.89044622  0.26152889  0.07106496  1
  N  N8  1  0.61640789  0.74046396  0.62308821  1
  N  N9  1  0.40763851  0.73164556  0.42506414  1
  N  N10  1  0.11640693  0.75952577  0.87691146  1
  N  N11  1  0.90763219  0.76837930  0.07491768  1
  H  H12  1  0.50815267  0.40411935  0.50238267  1
  H  H13  1  0.67349443  0.30148736  0.69385097  1
  H  H14  1  0.59782451  0.14393883  0.65873807  1
  H  H15  1  0.32233723  0.29173829  0.34512405  1
  H  H16  1  0.36964200  0.14002380  0.43898556  1
  H  H17  1  0.00808605  0.09586965  0.99761867  1
  H  H18  1  0.17347155  0.19848290  0.80617163  1
  H  H19  1  0.09786099  0.35604329  0.84129870  1
  H  H20  1  0.82232252  0.20827373  0.15488971  1
  H  H21  1  0.86968672  0.35998448  0.06105635  1
  H  H22  1  0.49229934  0.89965535  0.52360778  1
  H  H23  1  0.68513007  0.80224934  0.69223955  1
  H  H24  1  0.64643813  0.64299505  0.63015300  1
  H  H25  1  0.32437283  0.78341385  0.35379101  1
  H  H26  1  0.40671719  0.63258340  0.41645860  1
  H  H27  1  0.99228118  0.60035078  0.97641189  1
  H  H28  1  0.18512482  0.69773091  0.80777326  1
  H  H29  1  0.14644253  0.85699197  0.86982744  1
  H  H30  1  0.82435289  0.71662171  0.14619108  1
  H  H31  1  0.90671403  0.86744152  0.08349658  1
  Si  Si32  1  0.49103613  0.02639739  0.05106913  1
  Si  Si33  1  0.99104076  0.47363101  0.44893182  1
  Cd  Cd34  1  0.00270694  0.99646198  0.56430955  1
  Cd  Cd35  1  0.50273243  0.50354630  0.93567795  1
  Cl  Cl36  1  0.47187411  0.26622824  0.04834921  1
  Cl  Cl37  1  0.26057476  0.99811689  0.20237651  1
  Cl  Cl38  1  0.67754470  0.01620017  0.25186674  1
  Cl  Cl39  1  0.97187863  0.23379195  0.45168441  1
  Cl  Cl40  1  0.27942586  0.02071279  0.70899829  1
  Cl  Cl41  1  0.78335421  0.98834483  0.77970859  1
  Cl  Cl42  1  0.49689262  0.71508147  0.05736844  1
  Cl  Cl43  1  0.76057938  0.50189646  0.29761304  1
  Cl  Cl44  1  0.17754873  0.48381171  0.24813771  1
  Cl  Cl45  1  0.99688580  0.78492703  0.44261647  1
  Cl  Cl46  1  0.28335586  0.51163952  0.72029414  1
  Cl  Cl47  1  0.77944086  0.47928133  0.79099403  1
