# generated using pymatgen
data_SiAgH10C2(N2Cl3)2
_symmetry_space_group_name_H-M   'P 1'
_cell_length_a   7.46825857
_cell_length_b   10.27031736
_cell_length_c   8.36460132
_cell_angle_alpha   92.44655964
_cell_angle_beta   84.82080752
_cell_angle_gamma   89.75394675
_symmetry_Int_Tables_number   1
_chemical_formula_structural   SiAgH10C2(N2Cl3)2
_chemical_formula_sum   'Si2 Ag2 H20 C4 N8 Cl12'
_cell_volume   638.35328201
_cell_formula_units_Z   2
loop_
 _symmetry_equiv_pos_site_id
 _symmetry_equiv_pos_as_xyz
  1  'x, y, z'
loop_
 _atom_site_type_symbol
 _atom_site_label
 _atom_site_symmetry_multiplicity
 _atom_site_fract_x
 _atom_site_fract_y
 _atom_site_fract_z
 _atom_site_occupancy
  C  C0  1  0.52439399  0.28480502  0.51097893  1
  C  C1  1  0.02234538  0.22488525  0.99148172  1
  C  C2  1  0.51465755  0.79996802  0.51397212  1
  C  C3  1  0.00862489  0.69488707  0.97643679  1
  N  N4  1  0.56489301  0.22502338  0.63801958  1
  N  N5  1  0.40492574  0.24432569  0.41441986  1
  N  N6  1  0.05703796  0.27058481  0.84775371  1
  N  N7  1  0.90992111  0.27632488  0.10616671  1
  N  N8  1  0.59290990  0.73539921  0.62056117  1
  N  N9  1  0.42801754  0.74784201  0.39831099  1
  N  N10  1  0.10106818  0.75922637  0.86548501  1
  N  N11  1  0.91906548  0.74634313  0.10562269  1
  H  H12  1  0.59646551  0.37396650  0.48059574  1
  H  H13  1  0.65698128  0.26801143  0.70582296  1
  H  H14  1  0.49643178  0.14436009  0.67802328  1
  H  H15  1  0.37076801  0.30255406  0.32619140  1
  H  H16  1  0.32347112  0.16670032  0.43760425  1
  H  H17  1  0.09502278  0.13693355  0.01734283  1
  H  H18  1  0.13712161  0.21460850  0.76587490  1
  H  H19  1  0.98707272  0.34764563  0.80963609  1
  H  H20  1  0.90826479  0.24178006  0.22024422  1
  H  H21  1  0.84181390  0.36198106  0.09679432  1
  H  H22  1  0.52074340  0.90570553  0.52376695  1
  H  H23  1  0.65838531  0.78612230  0.70450771  1
  H  H24  1  0.59748397  0.63602999  0.62344323  1
  H  H25  1  0.36506075  0.80644245  0.32484552  1
  H  H26  1  0.42008900  0.64937931  0.37847453  1
  H  H27  1  0.00506496  0.58921974  0.95913892  1
  H  H28  1  0.16604535  0.70726733  0.77048042  1
  H  H29  1  0.11743864  0.85833549  0.86781852  1
  H  H30  1  0.84607391  0.68555796  0.18157975  1
  H  H31  1  0.91070258  0.84428765  0.13014087  1
  Si  Si32  1  0.53408944  0.99543782  0.05395927  1
  Si  Si33  1  0.02832313  0.51776220  0.47301964  1
  Ag  Ag34  1  0.02991203  0.98743496  0.52223108  1
  Ag  Ag35  1  0.50996150  0.50265249  0.03543832  1
  Cl  Cl36  1  0.47744767  0.19509101  0.01570651  1
  Cl  Cl37  1  0.26438720  0.98680642  0.19598395  1
  Cl  Cl38  1  0.69364126  0.00640368  0.24751901  1
  Cl  Cl39  1  0.97349886  0.21484475  0.46513114  1
  Cl  Cl40  1  0.27211728  0.01131654  0.72636974  1
  Cl  Cl41  1  0.75055800  0.99563419  0.85626955  1
  Cl  Cl42  1  0.49998324  0.79183634  0.99910889  1
  Cl  Cl43  1  0.70222559  0.52104194  0.27733126  1
  Cl  Cl44  1  0.21306829  0.49579942  0.22687197  1
  Cl  Cl45  1  0.99969873  0.74376654  0.47857765  1
  Cl  Cl46  1  0.25110292  0.51516911  0.63848981  1
  Cl  Cl47  1  0.73164213  0.48256178  0.79656129  1
