# generated using pymatgen
data_SiH10PdC2(N2Cl3)2
_symmetry_space_group_name_H-M   'P 1'
_cell_length_a   7.09708818
_cell_length_b   10.18362706
_cell_length_c   8.36929324
_cell_angle_alpha   92.04372946
_cell_angle_beta   90.12801870
_cell_angle_gamma   89.77310813
_symmetry_Int_Tables_number   1
_chemical_formula_structural   SiH10PdC2(N2Cl3)2
_chemical_formula_sum   'Si2 H20 Pd2 C4 N8 Cl12'
_cell_volume   604.49229842
_cell_formula_units_Z   2
loop_
 _symmetry_equiv_pos_site_id
 _symmetry_equiv_pos_as_xyz
  1  'x, y, z'
loop_
 _atom_site_type_symbol
 _atom_site_label
 _atom_site_symmetry_multiplicity
 _atom_site_fract_x
 _atom_site_fract_y
 _atom_site_fract_z
 _atom_site_occupancy
  C  C0  1  0.52196670  0.28398903  0.52096100  1
  C  C1  1  0.01921660  0.21731408  0.98239461  1
  C  C2  1  0.52261149  0.79906804  0.53421243  1
  C  C3  1  0.02432714  0.70043749  0.96055103  1
  N  N4  1  0.56491940  0.22375807  0.65202668  1
  N  N5  1  0.40992272  0.23705656  0.40842943  1
  N  N6  1  0.06067152  0.27119429  0.84702409  1
  N  N7  1  0.90295181  0.26772376  0.08945924  1
  N  N8  1  0.59619744  0.73821879  0.65473284  1
  N  N9  1  0.43946870  0.74282561  0.41010887  1
  N  N10  1  0.10116279  0.76778660  0.84758643  1
  N  N11  1  0.94468156  0.75010184  0.09021609  1
  H  H12  1  0.58718896  0.37886434  0.50283361  1
  H  H13  1  0.63944184  0.27593970  0.73769181  1
  H  H14  1  0.49868490  0.13886520  0.68122079  1
  H  H15  1  0.38452277  0.29010049  0.30985167  1
  H  H16  1  0.33664835  0.15154965  0.41927159  1
  H  H17  1  0.08922483  0.12531745  0.00936446  1
  H  H18  1  0.13825057  0.21628863  0.76543266  1
  H  H19  1  0.99292518  0.35407757  0.81173695  1
  H  H20  1  0.88104308  0.22124798  0.19337431  1
  H  H21  1  0.82559084  0.35066783  0.06995508  1
  H  H22  1  0.53062146  0.90575944  0.53752760  1
  H  H23  1  0.66074642  0.79361400  0.74281328  1
  H  H24  1  0.59619176  0.63858166  0.66793080  1
  H  H25  1  0.37484503  0.79964671  0.32778959  1
  H  H26  1  0.42599462  0.64368390  0.39624345  1
  H  H27  1  0.02541677  0.59390216  0.94459818  1
  H  H28  1  0.16199574  0.71741039  0.75353338  1
  H  H29  1  0.10490610  0.86810712  0.84489761  1
  H  H30  1  0.87594064  0.68943938  0.16530312  1
  H  H31  1  0.93840862  0.84843143  0.11612257  1
  Si  Si32  1  0.53194146  0.98731511  0.06741722  1
  Si  Si33  1  0.02696418  0.51219304  0.43350762  1
  Pd  Pd34  1  0.99344792  0.99435688  0.44671644  1
  Pd  Pd35  1  0.48790494  0.50965784  0.05314498  1
  Cl  Cl36  1  0.47105764  0.19283444  0.02217403  1
  Cl  Cl37  1  0.25277364  0.98255155  0.21029367  1
  Cl  Cl38  1  0.71664437  0.00743332  0.27699056  1
  Cl  Cl39  1  0.97256680  0.30457315  0.47556351  1
  Cl  Cl40  1  0.21831693  0.01934303  0.66285082  1
  Cl  Cl41  1  0.74617414  0.98728453  0.87359127  1
  Cl  Cl42  1  0.49994737  0.77326581  0.02992143  1
  Cl  Cl43  1  0.74780215  0.51689867  0.29237234  1
  Cl  Cl44  1  0.21239386  0.49251566  0.22395124  1
  Cl  Cl45  1  0.99586174  0.72673074  0.47023042  1
  Cl  Cl46  1  0.23915073  0.51187015  0.63014402  1
  Cl  Cl47  1  0.71038510  0.48026987  0.83603996  1
