# generated using pymatgen
data_SiH10RuC2(N2Cl3)2
_symmetry_space_group_name_H-M   'P 1'
_cell_length_a   7.20360031
_cell_length_b   10.34588392
_cell_length_c   8.15717007
_cell_angle_alpha   89.28180957
_cell_angle_beta   89.99897297
_cell_angle_gamma   90.00905150
_symmetry_Int_Tables_number   1
_chemical_formula_structural   SiH10RuC2(N2Cl3)2
_chemical_formula_sum   'Si2 H20 Ru2 C4 N8 Cl12'
_cell_volume   607.88664436
_cell_formula_units_Z   2
loop_
 _symmetry_equiv_pos_site_id
 _symmetry_equiv_pos_as_xyz
  1  'x, y, z'
loop_
 _atom_site_type_symbol
 _atom_site_label
 _atom_site_symmetry_multiplicity
 _atom_site_fract_x
 _atom_site_fract_y
 _atom_site_fract_z
 _atom_site_occupancy
  C  C0  1  0.49280850  0.31346392  0.53277543  1
  C  C1  1  0.99285339  0.18646647  0.96729935  1
  C  C2  1  0.53236336  0.76492732  0.52676658  1
  C  C3  1  0.03263184  0.73539839  0.97340815  1
  N  N4  1  0.59028925  0.27023643  0.65688618  1
  N  N5  1  0.41766736  0.24062956  0.42025485  1
  N  N6  1  0.09036469  0.22969799  0.84318871  1
  N  N7  1  0.91782565  0.25929947  0.07987790  1
  N  N8  1  0.59804072  0.73108256  0.67044434  1
  N  N9  1  0.39725202  0.70574637  0.45064903  1
  N  N10  1  0.09791128  0.76852052  0.82932798  1
  N  N11  1  0.89732921  0.79467546  0.04911352  1
  H  H12  1  0.47335964  0.41742668  0.52152343  1
  H  H13  1  0.64853470  0.33608093  0.73536194  1
  H  H14  1  0.62911165  0.17478342  0.66844957  1
  H  H15  1  0.34000608  0.28289836  0.33025691  1
  H  H16  1  0.40982342  0.14256656  0.43640981  1
  H  H17  1  0.97326849  0.08248567  0.97850120  1
  H  H18  1  0.14850732  0.16384145  0.76469512  1
  H  H19  1  0.12927710  0.32513302  0.83165419  1
  H  H20  1  0.84014539  0.21702653  0.16987195  1
  H  H21  1  0.91014117  0.35735828  0.06378793  1
  H  H22  1  0.59540074  0.84834777  0.46601364  1
  H  H23  1  0.70325175  0.78584471  0.71570486  1
  H  H24  1  0.55442738  0.65194700  0.73593054  1
  H  H25  1  0.35897206  0.73521067  0.33560475  1
  H  H26  1  0.32475550  0.63204897  0.50362177  1
  H  H27  1  0.09623264  0.65254308  0.03494896  1
  H  H28  1  0.20324263  0.71369287  0.78441860  1
  H  H29  1  0.05388784  0.84720659  0.76320584  1
  H  H30  1  0.85947190  0.76581216  0.16452873  1
  H  H31  1  0.82418176  0.86771868  -0.00462126  1
  Si  Si32  1  0.47958243  0.02858566  0.06297937  1
  Si  Si33  1  0.97946016  0.47146642  0.43708257  1
  Ru  Ru34  1  0.00595101  0.00929332  0.45274301  1
  Ru  Ru35  1  0.50615349  0.49069619  0.04728226  1
  Cl  Cl36  1  0.47603307  0.24253285  0.02842689  1
  Cl  Cl37  1  0.21916325  0.99353202  0.21056098  1
  Cl  Cl38  1  0.69989333  0.02021146  0.26534747  1
  Cl  Cl39  1  0.97593890  0.25750026  0.47170856  1
  Cl  Cl40  1  0.26706500  0.00553215  0.62731804  1
  Cl  Cl41  1  0.80456457  0.00070151  0.68774593  1
  Cl  Cl42  1  0.48097443  0.71798702  0.06008754  1
  Cl  Cl43  1  0.71911116  0.50650322  0.28947723  1
  Cl  Cl44  1  0.20005451  0.47984976  0.23488240  1
  Cl  Cl45  1  0.98066102  0.78201060  0.43954554  1
  Cl  Cl46  1  0.30478074  0.49916342  0.81230538  1
  Cl  Cl47  1  0.76729584  0.49437926  0.87275104  1
