# generated using pymatgen
data_SrSiH10C2(N2Cl3)2
_symmetry_space_group_name_H-M   'P 1'
_cell_length_a   7.86865104
_cell_length_b   10.71836895
_cell_length_c   7.85329806
_cell_angle_alpha   89.75520265
_cell_angle_beta   89.99968548
_cell_angle_gamma   89.99783834
_symmetry_Int_Tables_number   1
_chemical_formula_structural   SrSiH10C2(N2Cl3)2
_chemical_formula_sum   'Sr2 Si2 H20 C4 N8 Cl12'
_cell_volume   662.33408300
_cell_formula_units_Z   2
loop_
 _symmetry_equiv_pos_site_id
 _symmetry_equiv_pos_as_xyz
  1  'x, y, z'
loop_
 _atom_site_type_symbol
 _atom_site_label
 _atom_site_symmetry_multiplicity
 _atom_site_fract_x
 _atom_site_fract_y
 _atom_site_fract_z
 _atom_site_occupancy
  C  C0  1  0.49429468  0.29269184  0.49706875  1
  C  C1  1  0.99430487  0.20730272  0.00295722  1
  C  C2  1  0.50496954  0.79270881  0.50350620  1
  C  C3  1  0.00492049  0.70729623  0.99647668  1
  N  N4  1  0.60208525  0.23712435  0.59920756  1
  N  N5  1  0.39119943  0.23732378  0.39052543  1
  N  N6  1  0.10212690  0.26286830  0.90084259  1
  N  N7  1  0.89121290  0.26267043  0.10949894  1
  N  N8  1  0.60818958  0.73741137  0.61043692  1
  N  N9  1  0.39798184  0.73702215  0.40106769  1
  N  N10  1  0.10815103  0.76260020  0.88955700  1
  N  N11  1  0.89791219  0.76296804  0.09889214  1
  H  H12  1  0.48942059  0.39415107  0.50141302  1
  H  H13  1  0.67933969  0.29089651  0.67335004  1
  H  H14  1  0.61158560  0.14267679  0.61213532  1
  H  H15  1  0.31018315  0.29161920  0.32034841  1
  H  H16  1  0.39005134  0.14350604  0.36941296  1
  H  H17  1  0.98940954  0.10584613  0.99858092  1
  H  H18  1  0.17938538  0.20909142  0.82670763  1
  H  H19  1  0.11165825  0.35731242  0.88795270  1
  H  H20  1  0.81016163  0.20838172  0.17964352  1
  H  H21  1  0.89007255  0.35649014  0.13062902  1
  H  H22  1  0.50879102  0.89420853  0.49899361  1
  H  H23  1  0.68246460  0.79199162  0.68682226  1
  H  H24  1  0.62238917  0.64300650  0.61970316  1
  H  H25  1  0.32743841  0.79046608  0.31956408  1
  H  H26  1  0.37741126  0.64312792  0.40058784  1
  H  H27  1  0.00876695  0.60579417  0.00098331  1
  H  H28  1  0.18244045  0.70802993  0.81317816  1
  H  H29  1  0.12232676  0.85700463  0.88029781  1
  H  H30  1  0.82737487  0.70951962  0.18040142  1
  H  H31  1  0.87731995  0.85686685  0.09937917  1
  Si  Si32  1  0.49614938  0.00009907  0.99855229  1
  Si  Si33  1  0.99616600  0.49989142  0.50146489  1
  Sr  Sr34  1  0.00114014  0.00002998  0.49666064  1
  Sr  Sr35  1  0.50113990  0.49998317  0.00333510  1
  Cl  Cl36  1  0.49819547  0.23573349  0.99612176  1
  Cl  Cl37  1  0.23125246  0.98573393  0.20750829  1
  Cl  Cl38  1  0.71122883  0.01507434  0.27228412  1
  Cl  Cl39  1  0.99818208  0.26429758  0.50391813  1
  Cl  Cl40  1  0.28770046  0.01461209  0.72762295  1
  Cl  Cl41  1  0.77572321  0.98487778  0.78419939  1
  Cl  Cl42  1  0.50095028  0.76409144  0.00475729  1
  Cl  Cl43  1  0.73122041  0.51427602  0.29248391  1
  Cl  Cl44  1  0.21122690  0.48492512  0.22770658  1
  Cl  Cl45  1  0.00100795  0.73594017  0.49519654  1
  Cl  Cl46  1  0.27570144  0.51512678  0.71579970  1
  Cl  Cl47  1  0.78769452  0.48539509  0.77237171  1
