# generated using pymatgen
data_SiGeH10C2(N2Cl3)2
_symmetry_space_group_name_H-M   'P 1'
_cell_length_a   7.65980026
_cell_length_b   10.90890600
_cell_length_c   8.08582456
_cell_angle_alpha   89.57719754
_cell_angle_beta   90.02056262
_cell_angle_gamma   90.01160952
_symmetry_Int_Tables_number   1
_chemical_formula_structural   SiGeH10C2(N2Cl3)2
_chemical_formula_sum   'Si2 Ge2 H20 C4 N8 Cl12'
_cell_volume   675.63337857
_cell_formula_units_Z   2
loop_
 _symmetry_equiv_pos_site_id
 _symmetry_equiv_pos_as_xyz
  1  'x, y, z'
loop_
 _atom_site_type_symbol
 _atom_site_label
 _atom_site_symmetry_multiplicity
 _atom_site_fract_x
 _atom_site_fract_y
 _atom_site_fract_z
 _atom_site_occupancy
  C  C0  1  0.49129140  0.29076035  0.50940274  1
  C  C1  1  0.99147591  0.20849420  0.99285424  1
  C  C2  1  0.50863670  0.78950121  0.49608146  1
  C  C3  1  0.00862505  0.70995109  0.00159613  1
  N  N4  1  0.59032998  0.23768980  0.62081410  1
  N  N5  1  0.39222659  0.23477542  0.40153475  1
  N  N6  1  0.09065303  0.26203079  0.88201832  1
  N  N7  1  0.89344830  0.26395652  0.10195341  1
  N  N8  1  0.60838191  0.73463591  0.60514842  1
  N  N9  1  0.41094917  0.73552436  0.38516480  1
  N  N10  1  0.10777670  0.76475668  0.89203026  1
  N  N11  1  0.91153750  0.76396709  0.11285746  1
  H  H12  1  0.49090786  0.39063841  0.50653284  1
  H  H13  1  0.66421233  0.29262146  0.69527330  1
  H  H14  1  0.60346809  0.14492862  0.63485878  1
  H  H15  1  0.31858060  0.28659859  0.32251532  1
  H  H16  1  0.38242728  0.14176918  0.39319299  1
  H  H17  1  0.99000639  0.10859872  0.99408134  1
  H  H18  1  0.16390361  0.20742791  0.80663322  1
  H  H19  1  0.10453398  0.35482385  0.86927890  1
  H  H20  1  0.81921437  0.21170468  0.17996897  1
  H  H21  1  0.88455119  0.35692430  0.11192700  1
  H  H22  1  0.50703527  0.88939655  0.49727905  1
  H  H23  1  0.67983969  0.78764581  0.68372301  1
  H  H24  1  0.62049282  0.64173266  0.61631388  1
  H  H25  1  0.33649176  0.78891680  0.30872163  1
  H  H26  1  0.39724265  0.64288024  0.37558936  1
  H  H27  1  0.00693254  0.61005565  0.00050432  1
  H  H28  1  0.17907217  0.71164975  0.81349212  1
  H  H29  1  0.12011029  0.85765238  0.88084093  1
  H  H30  1  0.83730883  0.71063284  0.18955735  1
  H  H31  1  0.89790357  0.85660384  0.12240226  1
  Si  Si32  1  0.49702167  0.01181538  0.03149750  1
  Si  Si33  1  0.99732408  0.49049621  0.46789176  1
  Ge  Ge34  1  1.00016604  0.99636549  0.52055051  1
  Ge  Ge35  1  0.50067192  0.50600293  0.97860526  1
  Cl  Cl36  1  0.48168136  0.21224784  0.01217333  1
  Cl  Cl37  1  0.25538690  0.98769664  0.19676465  1
  Cl  Cl38  1  0.69378207  0.01497464  0.24775155  1
  Cl  Cl39  1  0.98127813  0.29046444  0.49148034  1
  Cl  Cl40  1  0.25326513  0.01813355  0.69794560  1
  Cl  Cl41  1  0.79697821  0.98719467  0.74907596  1
  Cl  Cl42  1  0.51678179  0.71721355  0.99554537  1
  Cl  Cl43  1  0.75510310  0.51269703  0.30222022  1
  Cl  Cl44  1  0.19350133  0.48436237  0.25137420  1
  Cl  Cl45  1  0.01661316  0.78540550  0.50130837  1
  Cl  Cl46  1  0.29730114  0.51301767  0.74974463  1
  Cl  Cl47  1  0.75359577  0.48272940  0.80203285  1
