# generated using pymatgen
data_CuBiH12C2(I3N)2
_symmetry_space_group_name_H-M   'P 1'
_cell_length_a   8.17711990
_cell_length_b   11.72404477
_cell_length_c   8.40327670
_cell_angle_alpha   89.45426474
_cell_angle_beta   89.91174318
_cell_angle_gamma   89.99390607
_symmetry_Int_Tables_number   1
_chemical_formula_structural   CuBiH12C2(I3N)2
_chemical_formula_sum   'Cu2 Bi2 H24 C4 I12 N4'
_cell_volume   805.57555806
_cell_formula_units_Z   2
loop_
 _symmetry_equiv_pos_site_id
 _symmetry_equiv_pos_as_xyz
  1  'x, y, z'
loop_
 _atom_site_type_symbol
 _atom_site_label
 _atom_site_symmetry_multiplicity
 _atom_site_fract_x
 _atom_site_fract_y
 _atom_site_fract_z
 _atom_site_occupancy
  C  C0  1  0.44111286  0.25100015  0.41987943  1
  C  C1  1  0.94323961  0.24908573  0.07931134  1
  C  C2  1  0.55822331  0.74884572  0.58237084  1
  C  C3  1  0.05617535  0.75109628  0.91813363  1
  N  N4  1  0.54361093  0.24932825  0.56519503  1
  N  N5  1  0.04527992  0.25072474  0.93337213  1
  N  N6  1  0.45447197  0.74992393  0.43789379  1
  N  N7  1  0.95307427  0.75002197  0.06337251  1
  H  H8  1  0.52206514  0.25237911  0.31630948  1
  H  H9  1  0.36586783  0.17383816  0.41871610  1
  H  H10  1  0.36424997  0.32734008  0.42097527  1
  H  H11  1  0.61780598  0.17769579  0.56859760  1
  H  H12  1  0.61942654  0.32008279  0.56886224  1
  H  H13  1  0.47533603  0.24843701  0.66995468  1
  H  H14  1  0.02453962  0.24767628  0.18237283  1
  H  H15  1  0.86638117  0.17272850  0.07867224  1
  H  H16  1  0.86803121  0.32625864  0.08091847  1
  H  H17  1  0.12112268  0.17997158  0.92925990  1
  H  H18  1  0.11950979  0.32234460  0.92945585  1
  H  H19  1  0.97668407  0.25161947  0.82902336  1
  H  H20  1  0.47814421  0.74767370  0.68659699  1
  H  H21  1  0.63521745  0.67256865  0.58123730  1
  H  H22  1  0.63339969  0.82604934  0.58247441  1
  H  H23  1  0.37988621  0.82135276  0.43511380  1
  H  H24  1  0.37900937  0.67895616  0.43522850  1
  H  H25  1  0.52178226  0.75084165  0.33253742  1
  H  H26  1  0.97558151  0.75230146  0.81451640  1
  H  H27  1  0.13313768  0.82738638  0.91872792  1
  H  H28  1  0.13133877  0.67388584  0.91744816  1
  H  H29  1  0.87764162  0.82100685  0.06664415  1
  H  H30  1  0.87845856  0.67860791  0.06673369  1
  H  H31  1  0.02090033  0.74905870  0.16820573  1
  Cu  Cu32  1  0.51621547  0.00011478  0.00582794  1
  Cu  Cu33  1  0.01702663  0.49982601  0.49534476  1
  Bi  Bi34  1  0.00315558  0.00053470  0.49693642  1
  Bi  Bi35  1  0.50314606  0.49942350  0.00357389  1
  I  I36  1  0.48558026  0.23661859  0.97991460  1
  I  I37  1  0.20420262  0.99928708  0.18570845  1
  I  I38  1  0.68338816  0.00171612  0.29726394  1
  I  I39  1  0.98433436  0.26332243  0.51933887  1
  I  I40  1  0.31259818  0.99844734  0.70124357  1
  I  I41  1  0.79373694  0.00123537  0.81156741  1
  I  I42  1  0.51050203  0.76260742  0.02222606  1
  I  I43  1  0.70386627  0.50074169  0.31401856  1
  I  I44  1  0.18278364  0.49834543  0.20316073  1
  I  I45  1  0.01213834  0.73752173  0.47855217  1
  I  I46  1  0.29387763  0.49869746  0.68899131  1
  I  I47  1  0.81276566  0.50155045  0.79851672  1
