# generated using pymatgen
data_ZnSiH10C2(N2Cl3)2
_symmetry_space_group_name_H-M   'P 1'
_cell_length_a   6.70786956
_cell_length_b   11.57568931
_cell_length_c   8.58102071
_cell_angle_alpha   89.42629818
_cell_angle_beta   89.99646750
_cell_angle_gamma   89.99954304
_symmetry_Int_Tables_number   1
_chemical_formula_structural   ZnSiH10C2(N2Cl3)2
_chemical_formula_sum   'Zn2 Si2 H20 C4 N8 Cl12'
_cell_volume   666.26752964
_cell_formula_units_Z   2
loop_
 _symmetry_equiv_pos_site_id
 _symmetry_equiv_pos_as_xyz
  1  'x, y, z'
loop_
 _atom_site_type_symbol
 _atom_site_label
 _atom_site_symmetry_multiplicity
 _atom_site_fract_x
 _atom_site_fract_y
 _atom_site_fract_z
 _atom_site_occupancy
  C  C0  1  0.50251724  0.30314714  0.51676745  1
  C  C1  1  0.00264230  0.19687303  0.98323848  1
  C  C2  1  0.48635031  0.78428960  0.52632278  1
  C  C3  1  0.98627528  0.71570508  0.97376915  1
  N  N4  1  0.55881955  0.26156338  0.65220500  1
  N  N5  1  0.45818949  0.24189318  0.39362704  1
  N  N6  1  0.05884602  0.23846896  0.84777221  1
  N  N7  1  0.95800103  0.25812744  0.10631441  1
  N  N8  1  0.53537353  0.71634578  0.64334591  1
  N  N9  1  0.46928785  0.75180609  0.38097645  1
  N  N10  1  0.03513084  0.78360935  0.85670566  1
  N  N11  1  0.96908044  0.74826166  0.11911003  1
  H  H12  1  0.49151222  0.39682601  0.50443156  1
  H  H13  1  0.60053458  0.31834571  0.73776632  1
  H  H14  1  0.58396407  0.17490814  0.67158049  1
  H  H15  1  0.40814475  0.28301014  0.29542516  1
  H  H16  1  0.45277290  0.15388590  0.39785258  1
  H  H17  1  0.99202545  0.10318615  0.99566363  1
  H  H18  1  0.10074779  0.18169627  0.76224812  1
  H  H19  1  0.08371537  0.32514079  0.82834027  1
  H  H20  1  0.90808494  0.21698642  0.20454266  1
  H  H21  1  0.95212043  0.34612297  0.10198068  1
  H  H22  1  0.45897384  0.87523868  0.55223799  1
  H  H23  1  0.54205968  0.74715866  0.75511877  1
  H  H24  1  0.55358913  0.62959758  0.63103242  1
  H  H25  1  0.41694964  0.80915993  0.29962942  1
  H  H26  1  0.49391870  0.66932348  0.34526527  1
  H  H27  1  0.95912280  0.62471276  0.94797910  1
  H  H28  1  0.04196157  0.75273589  0.74495497  1
  H  H29  1  0.05307163  0.87039221  0.86888654  1
  H  H30  1  0.91689645  0.69091081  0.20050769  1
  H  H31  1  0.99349722  0.83078348  0.15471305  1
  Si  Si32  1  0.55425686  0.00098964  0.06799937  1
  Si  Si33  1  0.05424243  0.49896853  0.43192983  1
  Zn  Zn34  1  0.93968117  0.96421761  0.53228143  1
  Zn  Zn35  1  0.43954721  0.53578466  0.96769081  1
  Cl  Cl36  1  0.50123387  0.18127323  0.01897985  1
  Cl  Cl37  1  0.27198851  0.97795745  0.19810503  1
  Cl  Cl38  1  0.77620011  0.03700827  0.30565607  1
  Cl  Cl39  1  0.00124913  0.31868324  0.48098272  1
  Cl  Cl40  1  0.22786080  0.04379905  0.61348400  1
  Cl  Cl41  1  0.72636136  0.00015940  0.72952837  1
  Cl  Cl42  1  0.49050136  0.72463306  0.01152212  1
  Cl  Cl43  1  0.77190108  0.52199698  0.30191112  1
  Cl  Cl44  1  0.27609096  0.46290765  0.19428002  1
  Cl  Cl45  1  0.99065735  0.77535962  0.48851568  1
  Cl  Cl46  1  0.22629063  0.49989243  0.77041496  1
  Cl  Cl47  1  0.72777949  0.45621949  0.88651212  1
