# generated using pymatgen
data_CuSiH10C2(N2Cl3)2
_symmetry_space_group_name_H-M   'P 1'
_cell_length_a   7.60738589
_cell_length_b   10.42978902
_cell_length_c   8.33369329
_cell_angle_alpha   92.51262841
_cell_angle_beta   85.11071955
_cell_angle_gamma   87.82866265
_symmetry_Int_Tables_number   1
_chemical_formula_structural   CuSiH10C2(N2Cl3)2
_chemical_formula_sum   'Si2 Cu2 H20 C4 N8 Cl12'
_cell_volume   657.60867717
_cell_formula_units_Z   2
loop_
 _symmetry_equiv_pos_site_id
 _symmetry_equiv_pos_as_xyz
  1  'x, y, z'
loop_
 _atom_site_type_symbol
 _atom_site_label
 _atom_site_symmetry_multiplicity
 _atom_site_fract_x
 _atom_site_fract_y
 _atom_site_fract_z
 _atom_site_occupancy
  C  C0  1  0.52467159  0.29699635  0.51891420  1
  C  C1  1  0.01427470  0.20655046  0.98481201  1
  C  C2  1  0.51357868  0.77403768  0.49841720  1
  C  C3  1  0.02372580  0.71244645  0.97964136  1
  N  N4  1  0.58956803  0.23343425  0.63450387  1
  N  N5  1  0.40797413  0.25427861  0.42496347  1
  N  N6  1  0.06394153  0.24869695  0.84286588  1
  N  N7  1  0.89727840  0.26508275  0.09044499  1
  N  N8  1  0.58157903  0.72467825  0.62199102  1
  N  N9  1  0.39586951  0.72052174  0.41325693  1
  N  N10  1  0.07813813  0.77654746  0.85416195  1
  N  N11  1  0.93382424  0.76114755  0.11041223  1
  H  H12  1  0.57385049  0.39203018  0.49678790  1
  H  H13  1  0.68079728  0.27530022  0.70003829  1
  H  H14  1  0.54304219  0.14648847  0.66696229  1
  H  H15  1  0.35778700  0.31336920  0.34367921  1
  H  H16  1  0.35346020  0.16680619  0.43750567  1
  H  H17  1  0.07592637  0.11635979  0.01771368  1
  H  H18  1  0.15362124  0.19330470  0.76821163  1
  H  H19  1  0.01885255  0.33502490  0.80603155  1
  H  H20  1  0.87994452  0.23281124  0.20416791  1
  H  H21  1  0.83699013  0.35120562  0.06766642  1
  H  H22  1  0.55893543  0.86730708  0.46298574  1
  H  H23  1  0.68101543  0.77095773  0.67175573  1
  H  H24  1  0.54703873  0.63777049  0.66508217  1
  H  H25  1  0.34907758  0.76885307  0.32090453  1
  H  H26  1  0.34749086  0.63222550  0.43379755  1
  H  H27  1  0.05887884  0.61001405  0.97443836  1
  H  H28  1  0.14532964  0.72634230  0.75891032  1
  H  H29  1  0.04792787  0.87146448  0.84270043  1
  H  H30  1  0.89484409  0.70208630  0.20011351  1
  H  H31  1  0.89857804  0.85617901  0.12942432  1
  Si  Si32  1  0.52589869  0.00185166  0.06713491  1
  Si  Si33  1  0.98861951  0.48931981  0.45218313  1
  Cu  Cu34  1  0.13134226  0.95414214  0.52605970  1
  Cu  Cu35  1  0.49336887  0.48862422  0.84897586  1
  Cl  Cl36  1  0.45009200  0.19236666  0.01821128  1
  Cl  Cl37  1  0.26484483  0.99694797  0.23058520  1
  Cl  Cl38  1  0.68715224  0.01563340  0.25799344  1
  Cl  Cl39  1  0.97723299  0.27438487  0.46400731  1
  Cl  Cl40  1  0.31206682  0.02110163  0.68908775  1
  Cl  Cl41  1  0.73778289  0.99866522  0.86926641  1
  Cl  Cl42  1  0.48588958  0.80577456  0.00981704  1
  Cl  Cl43  1  0.75642355  0.51840559  0.30579072  1
  Cl  Cl44  1  0.19870211  0.48336243  0.23921664  1
  Cl  Cl45  1  0.93448814  0.82418818  0.48022523  1
  Cl  Cl46  1  0.26135683  0.50782208  0.73025163  1
  Cl  Cl47  1  0.76694580  0.48715349  0.86803621  1
