# generated using pymatgen
data_ScSiH10C2(N2Cl3)2
_symmetry_space_group_name_H-M   'P 1'
_cell_length_a   6.97982824
_cell_length_b   11.29973221
_cell_length_c   8.53282709
_cell_angle_alpha   99.42194899
_cell_angle_beta   81.83833267
_cell_angle_gamma   89.51453651
_symmetry_Int_Tables_number   1
_chemical_formula_structural   ScSiH10C2(N2Cl3)2
_chemical_formula_sum   'Sc2 Si2 H20 C4 N8 Cl12'
_cell_volume   656.83571737
_cell_formula_units_Z   2
loop_
 _symmetry_equiv_pos_site_id
 _symmetry_equiv_pos_as_xyz
  1  'x, y, z'
loop_
 _atom_site_type_symbol
 _atom_site_label
 _atom_site_symmetry_multiplicity
 _atom_site_fract_x
 _atom_site_fract_y
 _atom_site_fract_z
 _atom_site_occupancy
  C  C0  1  0.53217014  0.26304975  0.54795894  1
  C  C1  1  0.10580063  0.25371110  0.04332512  1
  C  C2  1  0.51152501  0.78594000  0.53902902  1
  C  C3  1  0.94796691  0.71867502  0.99418803  1
  N  N4  1  0.55284417  0.18422690  0.64243540  1
  N  N5  1  0.40366111  0.26148885  0.45002562  1
  N  N6  1  0.95634482  0.17804143  0.68304576  1
  N  N7  1  0.15026008  0.35507295  0.00228875  1
  N  N8  1  0.49132375  0.69695124  0.62116173  1
  N  N9  1  0.46800374  0.78308688  0.39405458  1
  N  N10  1  0.99569679  0.71673183  0.83946188  1
  N  N11  1  0.99904503  0.80045485  0.10704720  1
  H  H12  1  0.63295223  0.33602862  0.55300470  1
  H  H13  1  0.68551491  0.18285267  0.68722326  1
  H  H14  1  0.46185441  0.11454296  0.65105180  1
  H  H15  1  0.39382926  0.33107287  0.38895246  1
  H  H16  1  0.30930129  0.19247603  0.43356310  1
  H  H17  1  0.21604588  0.19589248  0.07429585  1
  H  H18  1  -0.04650560  0.22402682  0.79675661  1
  H  H19  1  0.98449258  0.23905030  0.60681605  1
  H  H20  1  0.95838861  0.22060463  0.04703656  1
  H  H21  1  0.03196159  0.39885066  0.97430784  1
  H  H22  1  0.56815195  0.86833167  0.59726600  1
  H  H23  1  0.51852546  0.70876435  0.73735083  1
  H  H24  1  0.43249321  0.61721122  0.58106259  1
  H  H25  1  0.48041795  0.85849240  0.34284585  1
  H  H26  1  0.41023575  0.70986326  0.33243432  1
  H  H27  1  0.85866003  0.64659840  0.03113453  1
  H  H28  1  0.95433926  0.64753577  0.75969608  1
  H  H29  1  0.08120626  0.78002486  0.79505030  1
  H  H30  1  0.96271344  0.79372786  0.22611022  1
  H  H31  1  0.08373901  0.86991699  0.08177053  1
  Si  Si32  1  0.52820800  0.05785891  0.07519566  1
  Si  Si33  1  0.97569769  0.50676816  0.44235711  1
  Sc  Sc34  1  0.02156464  0.00203443  0.62522959  1
  Sc  Sc35  1  0.41793410  0.46794746  0.97064054  1
  Cl  Cl36  1  0.58489655  0.25617547  0.05873951  1
  Cl  Cl37  1  0.19828152  0.02076691  0.36455124  1
  Cl  Cl38  1  0.72781043  0.03804506  0.24076712  1
  Cl  Cl39  1  0.96862890  0.31244661  0.37842753  1
  Cl  Cl40  1  0.24564410  0.97201731  0.79995928  1
  Cl  Cl41  1  0.73305770  0.96821926  0.84337161  1
  Cl  Cl42  1  0.44465210  0.68352873  0.01705239  1
  Cl  Cl43  1  0.79433244  0.54101376  0.26732294  1
  Cl  Cl44  1  0.29255634  0.51320999  0.28993327  1
  Cl  Cl45  1  0.95293190  0.79891687  0.49494455  1
  Cl  Cl46  1  0.27655928  0.47634494  0.73574225  1
  Cl  Cl47  1  0.74430394  0.45147348  0.83411867  1
