# generated using pymatgen
data_CaSiH10C2(N2Cl3)2
_symmetry_space_group_name_H-M   'P 1'
_cell_length_a   7.57314594
_cell_length_b   10.58705769
_cell_length_c   8.13366920
_cell_angle_alpha   93.47779075
_cell_angle_beta   89.99953893
_cell_angle_gamma   90.00308718
_symmetry_Int_Tables_number   1
_chemical_formula_structural   CaSiH10C2(N2Cl3)2
_chemical_formula_sum   'Ca2 Si2 H20 C4 N8 Cl12'
_cell_volume   650.93492093
_cell_formula_units_Z   2
loop_
 _symmetry_equiv_pos_site_id
 _symmetry_equiv_pos_as_xyz
  1  'x, y, z'
loop_
 _atom_site_type_symbol
 _atom_site_label
 _atom_site_symmetry_multiplicity
 _atom_site_fract_x
 _atom_site_fract_y
 _atom_site_fract_z
 _atom_site_occupancy
  C  C0  1  0.52618620  0.28758693  0.53090297  1
  C  C1  1  0.02619234  0.21245274  0.96915388  1
  C  C2  1  0.52432068  0.78965385  0.52582961  1
  C  C3  1  0.02430125  0.71035318  0.97419164  1
  N  N4  1  0.58404051  0.23574673  0.66310732  1
  N  N5  1  0.40329525  0.23909680  0.43296834  1
  N  N6  1  0.08395537  0.26417167  0.83683001  1
  N  N7  1  0.90341441  0.26104289  0.06713572  1
  N  N8  1  0.59973107  0.72879171  0.64212650  1
  N  N9  1  0.40832471  0.74107146  0.42038930  1
  N  N10  1  0.09976553  0.77121359  0.85791707  1
  N  N11  1  0.90822275  0.75892730  0.07955483  1
  H  H12  1  0.58513645  0.37711355  0.50045026  1
  H  H13  1  0.67508234  0.28460666  0.73431002  1
  H  H14  1  0.53483408  0.15254699  0.70105575  1
  H  H15  1  0.37497263  0.27850889  0.32443581  1
  H  H16  1  0.34440489  0.15517599  0.45567413  1
  H  H17  1  0.08511170  0.12293664  0.99968086  1
  H  H18  1  0.17489571  0.21523042  0.76560155  1
  H  H19  1  0.03478697  0.34736499  0.79883454  1
  H  H20  1  0.87525641  0.22176684  0.17580763  1
  H  H21  1  0.84457145  0.34496476  0.04436924  1
  H  H22  1  0.56179830  0.88804781  0.51484167  1
  H  H23  1  0.68614837  0.77835291  0.71808618  1
  H  H24  1  0.56415424  0.63872661  0.66713790  1
  H  H25  1  0.35193256  0.79730443  0.33753728  1
  H  H26  1  0.36146481  0.65108886  0.42460562  1
  H  H27  1  0.06180612  0.61197488  0.98523554  1
  H  H28  1  0.18626375  0.72166845  0.78203141  1
  H  H29  1  0.06419524  0.86127155  0.83287288  1
  H  H30  1  0.85173789  0.70268008  0.16234607  1
  H  H31  1  0.86130552  0.84888386  0.07524027  1
  Si  Si32  1  0.48023919  0.98330229  0.04467361  1
  Si  Si33  1  0.98026413  0.51672771  0.45533659  1
  Ca  Ca34  1  0.97903289  0.00275084  0.49826393  1
  Ca  Ca35  1  0.47905582  0.49716844  0.00166944  1
  Cl  Cl36  1  0.46797155  0.25513995  0.05090639  1
  Cl  Cl37  1  0.22992503  0.98147831  0.21499392  1
  Cl  Cl38  1  0.68826330  0.00335556  0.25500586  1
  Cl  Cl39  1  0.96797207  0.24477061  0.44908242  1
  Cl  Cl40  1  0.27589496  0.01477113  0.67391336  1
  Cl  Cl41  1  0.79949722  0.98027145  0.77817921  1
  Cl  Cl42  1  0.49328120  0.75803801  0.03247886  1
  Cl  Cl43  1  0.72994252  0.51852215  0.28498618  1
  Cl  Cl44  1  0.18834173  0.49663860  0.24500199  1
  Cl  Cl45  1  0.99335087  0.74188432  0.46752065  1
  Cl  Cl46  1  0.29945891  0.51970417  0.72181095  1
  Cl  Cl47  1  0.77591845  0.48521543  0.82601963  1
