# generated using pymatgen
data_TlPH10C2(N2Cl3)2
_symmetry_space_group_name_H-M   'P 1'
_cell_length_a   7.83866071
_cell_length_b   10.77701494
_cell_length_c   7.82448963
_cell_angle_alpha   89.37277983
_cell_angle_beta   90.00293566
_cell_angle_gamma   90.00345420
_symmetry_Int_Tables_number   1
_chemical_formula_structural   TlPH10C2(N2Cl3)2
_chemical_formula_sum   'Tl2 P2 H20 C4 N8 Cl12'
_cell_volume   660.95264768
_cell_formula_units_Z   2
loop_
 _symmetry_equiv_pos_site_id
 _symmetry_equiv_pos_as_xyz
  1  'x, y, z'
loop_
 _atom_site_type_symbol
 _atom_site_label
 _atom_site_symmetry_multiplicity
 _atom_site_fract_x
 _atom_site_fract_y
 _atom_site_fract_z
 _atom_site_occupancy
  C  C0  1  0.49388942  0.29294709  0.49754775  1
  C  C1  1  0.99390564  0.20705584  0.00247902  1
  C  C2  1  0.50417458  0.79292838  0.50309384  1
  C  C3  1  0.00412529  0.70706121  0.99690524  1
  N  N4  1  0.60402707  0.23752615  0.59838758  1
  N  N5  1  0.38950057  0.23815604  0.39166193  1
  N  N6  1  0.10407883  0.26246269  0.90164672  1
  N  N7  1  0.88951833  0.26183604  0.10836574  1
  N  N8  1  0.60662035  0.73861891  0.61268141  1
  N  N9  1  0.39831149  0.73695936  0.39964841  1
  N  N10  1  0.10656728  0.76139680  0.88733025  1
  N  N11  1  0.89823841  0.76302795  0.10032041  1
  H  H12  1  0.48759747  0.39378899  0.50262056  1
  H  H13  1  0.68337734  0.29079223  0.67045917  1
  H  H14  1  0.61346892  0.14357146  0.61402759  1
  H  H15  1  0.30549310  0.29227050  0.32412681  1
  H  H16  1  0.39111911  0.14531717  0.36755267  1
  H  H17  1  0.98759058  0.10621021  0.99738454  1
  H  H18  1  0.18341512  0.20922012  0.82961184  1
  H  H19  1  0.11353954  0.35644567  0.88603636  1
  H  H20  1  0.80549875  0.20773229  0.17584810  1
  H  H21  1  0.89116708  0.35467619  0.13246787  1
  H  H22  1  0.50810975  0.89388697  0.49698105  1
  H  H23  1  0.67853440  0.79348958  0.69064266  1
  H  H24  1  0.62320504  0.64485418  0.62213580  1
  H  H25  1  0.33029076  0.78941160  0.31456893  1
  H  H26  1  0.37478484  0.64376927  0.40191163  1
  H  H27  1  0.00808172  0.60611886  0.00303270  1
  H  H28  1  0.17849767  0.70653305  0.80936576  1
  H  H29  1  0.12313534  0.85515965  0.87785354  1
  H  H30  1  0.83023715  0.71056918  0.18541402  1
  H  H31  1  0.87470040  0.85621405  0.09805235  1
  P  P32  1  0.49368815  0.00023214  0.99830530  1
  P  P33  1  0.99369518  0.49975087  0.50171049  1
  Tl  Tl34  1  0.99582184  0.99982768  0.49806704  1
  Tl  Tl35  1  0.49582841  0.50015658  0.00194212  1
  Cl  Cl36  1  0.49788739  0.21967340  0.99553093  1
  Cl  Cl37  1  0.25881701  0.99167705  0.18227770  1
  Cl  Cl38  1  0.69405785  0.01094917  0.25168826  1
  Cl  Cl39  1  0.99785050  0.28037021  0.50450030  1
  Cl  Cl40  1  0.31043342  0.00925727  0.75374608  1
  Cl  Cl41  1  0.75750167  0.98855559  0.79705872  1
  Cl  Cl42  1  0.49941031  0.78053584  0.00357303  1
  Cl  Cl43  1  0.75878962  0.50831625  0.31770150  1
  Cl  Cl44  1  0.19406779  0.48903778  0.24828800  1
  Cl  Cl45  1  -0.00054499  0.71951020  0.49639242  1
  Cl  Cl46  1  0.25746853  0.51145071  0.70292664  1
  Cl  Cl47  1  0.81044533  0.49075457  0.74623396  1
