# generated using pymatgen
data_TaPH10C2(N2Cl3)2
_symmetry_space_group_name_H-M   'P 1'
_cell_length_a   8.10819027
_cell_length_b   9.97295772
_cell_length_c   8.11059203
_cell_angle_alpha   90.24487097
_cell_angle_beta   90.00980270
_cell_angle_gamma   89.99471338
_symmetry_Int_Tables_number   1
_chemical_formula_structural   TaPH10C2(N2Cl3)2
_chemical_formula_sum   'Ta2 P2 H20 C4 N8 Cl12'
_cell_volume   655.83787087
_cell_formula_units_Z   2
loop_
 _symmetry_equiv_pos_site_id
 _symmetry_equiv_pos_as_xyz
  1  'x, y, z'
loop_
 _atom_site_type_symbol
 _atom_site_label
 _atom_site_symmetry_multiplicity
 _atom_site_fract_x
 _atom_site_fract_y
 _atom_site_fract_z
 _atom_site_occupancy
  C  C0  1  0.49651452  0.29482673  0.49820448  1
  C  C1  1  0.99654415  0.20518275  0.00177902  1
  C  C2  1  0.50116399  0.79286967  0.50233632  1
  C  C3  1  0.00115496  0.70716238  0.99763491  1
  N  N4  1  0.59686297  0.23880125  0.60437025  1
  N  N5  1  0.40531005  0.23420085  0.38719132  1
  N  N6  1  0.09689713  0.26119008  0.89567197  1
  N  N7  1  0.90540129  0.26581001  0.11281314  1
  N  N8  1  0.60992665  0.73315486  0.59623286  1
  N  N9  1  0.38792355  0.73516558  0.41138349  1
  N  N10  1  0.10986365  0.76683663  0.90377385  1
  N  N11  1  0.88790622  0.76487712  0.08860438  1
  H  H12  1  0.48685444  0.40348946  0.50355469  1
  H  H13  1  0.66306425  0.30031374  0.68126503  1
  H  H14  1  0.61419541  0.13795901  0.61641039  1
  H  H15  1  0.33230860  0.29273325  0.31372544  1
  H  H16  1  0.40805416  0.13388400  0.36195968  1
  H  H17  1  0.98679411  0.09653038  0.99635627  1
  H  H18  1  0.16306234  0.19967472  0.81877153  1
  H  H19  1  0.11430373  0.36202882  0.88371577  1
  H  H20  1  0.83237205  0.20729643  0.18625186  1
  H  H21  1  0.90824897  0.36612814  0.13814568  1
  H  H22  1  0.50581963  0.90175452  0.49947205  1
  H  H23  1  0.69280458  0.79084324  0.65987817  1
  H  H24  1  0.61831662  0.63200281  0.61098261  1
  H  H25  1  0.30922815  0.79403502  0.34470466  1
  H  H26  1  0.37123297  0.63413866  0.40259243  1
  H  H27  1  0.00579076  0.59824014  0.00051424  1
  H  H28  1  0.19273078  0.70913523  0.84012607  1
  H  H29  1  0.11825415  0.86798200  0.88902504  1
  H  H30  1  0.80925151  0.70600984  0.15526674  1
  H  H31  1  0.87124064  0.86587974  0.09737677  1
  P  P32  1  0.50043568  0.06157278  0.00095116  1
  P  P33  1  0.00042830  0.43842289  0.49902103  1
  Ta  Ta34  1  0.00144170  0.00233556  0.49756102  1
  Ta  Ta35  1  0.50145992  0.49765344  0.00244604  1
  Cl  Cl36  1  0.50245027  0.26641864  0.00014640  1
  Cl  Cl37  1  0.17187919  0.98619524  0.25337961  1
  Cl  Cl38  1  0.75552423  0.01109111  0.32557441  1
  Cl  Cl39  1  0.00240989  0.23356807  0.49988902  1
  Cl  Cl40  1  0.24445735  0.00925405  0.67217354  1
  Cl  Cl41  1  0.82546348  0.98802287  0.73996133  1
  Cl  Cl42  1  0.49865186  0.73683078  0.00302159  1
  Cl  Cl43  1  0.67191750  0.51382089  0.24665031  1
  Cl  Cl44  1  0.25556688  0.48893770  0.17439871  1
  Cl  Cl45  1  0.99867979  0.76314726  0.49694339  1
  Cl  Cl46  1  0.32542265  0.51195338  0.76002442  1
  Cl  Cl47  1  0.74443365  0.49070127  0.82787170  1
