# generated using pymatgen
data_InPH10C2(N2Cl3)2
_symmetry_space_group_name_H-M   'P 1'
_cell_length_a   7.64190136
_cell_length_b   10.74414087
_cell_length_c   8.19398758
_cell_angle_alpha   87.95014583
_cell_angle_beta   89.98463106
_cell_angle_gamma   90.06502094
_symmetry_Int_Tables_number   1
_chemical_formula_structural   InPH10C2(N2Cl3)2
_chemical_formula_sum   'In2 P2 H20 C4 N8 Cl12'
_cell_volume   672.34181283
_cell_formula_units_Z   2
loop_
 _symmetry_equiv_pos_site_id
 _symmetry_equiv_pos_as_xyz
  1  'x, y, z'
loop_
 _atom_site_type_symbol
 _atom_site_label
 _atom_site_symmetry_multiplicity
 _atom_site_fract_x
 _atom_site_fract_y
 _atom_site_fract_z
 _atom_site_occupancy
  C  C0  1  0.48562063  0.28749072  0.50337802  1
  C  C1  1  0.98586641  0.21223140  0.99716813  1
  C  C2  1  0.51353767  0.77466572  0.47757701  1
  C  C3  1  0.01401876  0.72580400  0.02248651  1
  N  N4  1  0.60301464  0.23419069  0.59934703  1
  N  N5  1  0.41470257  0.23572232  0.37680794  1
  N  N6  1  0.10324639  0.26498953  0.90043517  1
  N  N7  1  0.91460882  0.26491651  0.12283706  1
  N  N8  1  0.55437556  0.75390790  0.63145017  1
  N  N9  1  0.39458416  0.71289355  0.39772859  1
  N  N10  1  0.05403017  0.74574906  0.86823676  1
  N  N11  1  0.89476681  0.78732149  0.10210603  1
  H  H12  1  0.44169536  0.38070032  0.53364920  1
  H  H13  1  0.65248053  0.28215582  0.69362562  1
  H  H14  1  0.64960027  0.14601616  0.58472770  1
  H  H15  1  0.32886015  0.28829084  0.30691035  1
  H  H16  1  0.45849987  0.15203029  0.33691188  1
  H  H17  1  0.94222205  0.11859121  0.96836238  1
  H  H18  1  0.15323497  0.21607344  0.80730061  1
  H  H19  1  0.14964689  0.35348626  0.91350251  1
  H  H20  1  0.82874049  0.21263406  0.19329438  1
  H  H21  1  0.95830228  0.34899770  0.16173497  1
  H  H22  1  0.58228865  0.85012942  0.41087723  1
  H  H23  1  0.64414347  0.81064722  0.68462115  1
  H  H24  1  0.49313629  0.68578340  0.70102655  1
  H  H25  1  0.38038044  0.73141875  0.27457962  1
  H  H26  1  0.32168339  0.64329861  0.45177649  1
  H  H27  1  0.08375268  0.65121917  0.08972201  1
  H  H28  1  0.14412523  0.68923471  0.81535650  1
  H  H29  1  -0.00798873  0.81306058  0.79810879  1
  H  H30  1  0.88112803  0.76938258  0.22547858  1
  H  H31  1  0.82093179  0.85602547  0.04752465  1
  P  P32  1  0.47308335  0.01049424  0.98145136  1
  P  P33  1  0.97279703  0.48949464  0.51874689  1
  In  In34  1  0.01942835  0.99836205  0.47939391  1
  In  In35  1  0.51930928  0.50204686  0.02098627  1
  Cl  Cl36  1  0.50981408  0.21058828  0.98266580  1
  Cl  Cl37  1  0.26256197  1.00373045  0.15140512  1
  Cl  Cl38  1  0.71709028  0.03129922  0.29248417  1
  Cl  Cl39  1  0.00967189  0.28967919  0.51737956  1
  Cl  Cl40  1  0.32261870  0.00789984  0.76268232  1
  Cl  Cl41  1  0.80223836  0.98387044  0.75888027  1
  Cl  Cl42  1  0.47415138  0.75129973  0.01808905  1
  Cl  Cl43  1  0.76223171  0.49613196  0.34904167  1
  Cl  Cl44  1  0.21687028  0.46916833  0.20766545  1
  Cl  Cl45  1  0.97415508  0.74921188  0.48150938  1
  Cl  Cl46  1  0.30227963  0.51591822  0.74139904  1
  Cl  Cl47  1  0.82248130  0.49180876  0.73767490  1
