# generated using pymatgen
data_AgPH10C2(N2Cl3)2
_symmetry_space_group_name_H-M   'P 1'
_cell_length_a   7.59547517
_cell_length_b   10.41180343
_cell_length_c   8.33892805
_cell_angle_alpha   87.52625712
_cell_angle_beta   90.03545524
_cell_angle_gamma   90.03196001
_symmetry_Int_Tables_number   1
_chemical_formula_structural   AgPH10C2(N2Cl3)2
_chemical_formula_sum   'Ag2 P2 H20 C4 N8 Cl12'
_cell_volume   658.84929540
_cell_formula_units_Z   2
loop_
 _symmetry_equiv_pos_site_id
 _symmetry_equiv_pos_as_xyz
  1  'x, y, z'
loop_
 _atom_site_type_symbol
 _atom_site_label
 _atom_site_symmetry_multiplicity
 _atom_site_fract_x
 _atom_site_fract_y
 _atom_site_fract_z
 _atom_site_occupancy
  C  C0  1  0.47403988  0.27860964  0.50631285  1
  C  C1  1  0.97398113  0.22123116  0.99389248  1
  C  C2  1  0.53462706  0.77572382  0.47821223  1
  C  C3  1  0.03478778  0.72453989  0.02199780  1
  N  N4  1  0.59232414  0.23525447  0.60932708  1
  N  N5  1  0.41173868  0.21480597  0.38647207  1
  N  N6  1  0.09210576  0.26439469  0.89068269  1
  N  N7  1  0.91169248  0.28538771  0.11333077  1
  N  N8  1  0.55322232  0.75432092  0.63347211  1
  N  N9  1  0.42753041  0.71350861  0.38585382  1
  N  N10  1  0.05320470  0.74549756  0.86666314  1
  N  N11  1  0.92730956  0.78662412  0.11392883  1
  H  H12  1  0.42101644  0.37438761  0.52439842  1
  H  H13  1  0.63397445  0.29354328  0.69656485  1
  H  H14  1  0.64839846  0.14583181  0.60873671  1
  H  H15  1  0.32759121  0.26391762  0.30969344  1
  H  H16  1  0.47093151  0.13211904  0.35116189  1
  H  H17  1  0.92107024  0.12530230  0.97637654  1
  H  H18  1  0.13379985  0.20577606  0.80389120  1
  H  H19  1  0.14810084  0.35391501  0.89075198  1
  H  H20  1  0.82761560  0.23642406  0.19027330  1
  H  H21  1  0.97081966  0.36827822  0.14826742  1
  H  H22  1  0.61365949  0.85213812  0.41993133  1
  H  H23  1  0.63473175  0.81190194  0.69688056  1
  H  H24  1  0.48357461  0.68342797  0.69447406  1
  H  H25  1  0.43135431  0.73314153  0.26376491  1
  H  H26  1  0.34283658  0.64432716  0.42931125  1
  H  H27  1  0.11429417  0.64863311  0.08071280  1
  H  H28  1  0.13504836  0.68806538  0.80359706  1
  H  H29  1  0.98326673  0.81601042  0.80526851  1
  H  H30  1  0.93122583  0.76730866  0.23609089  1
  H  H31  1  0.84211329  0.85524081  0.07002490  1
  P  P32  1  0.46298119  0.02029256  0.98173378  1
  P  P33  1  0.96293634  0.47980659  0.51818233  1
  Ag  Ag34  1  0.92964477  0.97781610  0.49082734  1
  Ag  Ag35  1  0.42954128  0.52216932  0.00936616  1
  Cl  Cl36  1  0.49179609  0.22741559  0.98538063  1
  Cl  Cl37  1  0.25333441  0.00135265  0.14657455  1
  Cl  Cl38  1  0.72442845  0.03832781  0.26424460  1
  Cl  Cl39  1  0.99183349  0.27277075  0.51453741  1
  Cl  Cl40  1  0.31396696  0.00979412  0.76674287  1
  Cl  Cl41  1  0.79925244  0.98977468  0.77102586  1
  Cl  Cl42  1  0.52350129  0.75111433  0.01706822  1
  Cl  Cl43  1  0.75309763  0.49859410  0.35326070  1
  Cl  Cl44  1  0.22448408  0.46189998  0.23592140  1
  Cl  Cl45  1  0.02390454  0.74912563  0.48276311  1
  Cl  Cl46  1  0.29919632  0.51005961  0.72904458  1
  Cl  Cl47  1  0.81413276  0.49016048  0.73311332  1
