# generated using pymatgen
data_GaPH10C2(N2Cl3)2
_symmetry_space_group_name_H-M   'P 1'
_cell_length_a   7.76040055
_cell_length_b   10.71345656
_cell_length_c   8.04575746
_cell_angle_alpha   92.01888612
_cell_angle_beta   89.88846421
_cell_angle_gamma   89.58640250
_symmetry_Int_Tables_number   1
_chemical_formula_structural   GaPH10C2(N2Cl3)2
_chemical_formula_sum   'Ga2 P2 H20 C4 N8 Cl12'
_cell_volume   668.49575689
_cell_formula_units_Z   2
loop_
 _symmetry_equiv_pos_site_id
 _symmetry_equiv_pos_as_xyz
  1  'x, y, z'
loop_
 _atom_site_type_symbol
 _atom_site_label
 _atom_site_symmetry_multiplicity
 _atom_site_fract_x
 _atom_site_fract_y
 _atom_site_fract_z
 _atom_site_occupancy
  C  C0  1  0.52801460  0.28487446  0.51107240  1
  C  C1  1  0.99758577  0.29163553  0.00758392  1
  C  C2  1  0.53717656  0.73767246  0.48568876  1
  C  C3  1  0.04385682  0.71388885  0.01348048  1
  N  N4  1  0.59505179  0.22677617  0.63743621  1
  N  N5  1  0.39276687  0.24591584  0.42789026  1
  N  N6  1  0.09185748  0.25994010  0.87727081  1
  N  N7  1  0.90952918  0.21315021  0.09566482  1
  N  N8  1  0.56289877  0.81714100  0.61078012  1
  N  N9  1  0.38975050  0.72238748  0.40871442  1
  N  N10  1  0.10935508  0.77313452  0.88869034  1
  N  N11  1  0.89102546  0.73619015  0.07816837  1
  H  H12  1  0.59055961  0.36985007  0.47038541  1
  H  H13  1  0.70090779  0.26236024  0.69525080  1
  H  H14  1  0.53811488  0.14965630  0.68436241  1
  H  H15  1  0.34263672  0.30243251  0.33861673  1
  H  H16  1  0.32691286  0.16858210  0.46314803  1
  H  H17  1  0.89499717  0.12161596  0.05671580  1
  H  H18  1  0.11254595  0.16939978  0.83501283  1
  H  H19  1  0.15582375  0.32836316  0.81762487  1
  H  H20  1  0.83769848  0.24897891  0.19211540  1
  H  H21  1  0.99215172  0.38987826  0.04756921  1
  H  H22  1  0.46782710  0.87782221  0.65327851  1
  H  H23  1  0.68107495  0.82399867  0.66521560  1
  H  H24  1  0.64609300  0.68018715  0.44202134  1
  H  H25  1  0.27706254  0.76594369  0.44622607  1
  H  H26  1  0.37891513  0.65358989  0.31757074  1
  H  H27  1  0.12218024  0.64038611  0.06777162  1
  H  H28  1  0.23485788  0.75456054  0.85785331  1
  H  H29  1  0.04395687  0.84433868  0.83440652  1
  H  H30  1  0.84449471  0.67754592  0.16535705  1
  H  H31  1  0.80858555  0.80044754  0.03086087  1
  P  P32  1  0.46892541  0.99740266  0.04913433  1
  P  P33  1  0.00993328  0.49925018  0.51266555  1
  Ga  Ga34  1  0.96138471  0.00402597  0.52010249  1
  Ga  Ga35  1  0.52452293  0.48602424  0.99967414  1
  Cl  Cl36  1  0.48404823  0.19270582  0.02660158  1
  Cl  Cl37  1  0.23499657  0.99130285  0.18043179  1
  Cl  Cl38  1  0.63938232  0.98375609  0.25092749  1
  Cl  Cl39  1  0.99171485  0.30012828  0.49004632  1
  Cl  Cl40  1  0.27305599  0.02418459  0.68266502  1
  Cl  Cl41  1  0.82177584  0.99158996  0.83058487  1
  Cl  Cl42  1  0.49186148  0.71580482  0.99455657  1
  Cl  Cl43  1  0.74487898  0.49306758  0.25600134  1
  Cl  Cl44  1  0.26596526  0.47177833  0.21211692  1
  Cl  Cl45  1  0.98952602  0.77322640  0.49377281  1
  Cl  Cl46  1  0.23239517  0.50337965  0.67501159  1
  Cl  Cl47  1  0.81938653  0.51979112  0.70200791  1
