# generated using pymatgen
data_CuPH10C2(N2Cl3)2
_symmetry_space_group_name_H-M   'P 1'
_cell_length_a   7.23817810
_cell_length_b   10.58392217
_cell_length_c   8.50359950
_cell_angle_alpha   87.87433080
_cell_angle_beta   90.00224901
_cell_angle_gamma   89.99618177
_symmetry_Int_Tables_number   1
_chemical_formula_structural   CuPH10C2(N2Cl3)2
_chemical_formula_sum   'Cu2 P2 H20 C4 N8 Cl12'
_cell_volume   650.99813950
_cell_formula_units_Z   2
loop_
 _symmetry_equiv_pos_site_id
 _symmetry_equiv_pos_as_xyz
  1  'x, y, z'
loop_
 _atom_site_type_symbol
 _atom_site_label
 _atom_site_symmetry_multiplicity
 _atom_site_fract_x
 _atom_site_fract_y
 _atom_site_fract_z
 _atom_site_occupancy
  C  C0  1  0.47172531  0.28109026  0.49214702  1
  C  C1  1  0.97175717  0.21892647  0.00781555  1
  C  C2  1  0.50903006  0.78241996  0.47546983  1
  C  C3  1  0.00895311  0.71755443  0.02454335  1
  N  N4  1  0.58031357  0.24595630  0.60870693  1
  N  N5  1  0.44015477  0.21663029  0.36608963  1
  N  N6  1  0.08035247  0.25408346  0.89128393  1
  N  N7  1  0.94017438  0.28335636  0.13389618  1
  N  N8  1  0.51713559  0.73792880  0.62117576  1
  N  N9  1  0.43798738  0.72350532  0.35703838  1
  N  N10  1  0.01711438  0.76209366  0.87886132  1
  N  N11  1  0.93803746  0.77649260  0.14300887  1
  H  H12  1  0.40026341  0.37107147  0.50208725  1
  H  H13  1  0.59108327  0.30375050  0.70129851  1
  H  H14  1  0.65531826  0.16334930  0.61497614  1
  H  H15  1  0.36253474  0.26011874  0.27957809  1
  H  H16  1  0.51607627  0.13781799  0.34043879  1
  H  H17  1  0.90029856  0.12895513  0.99782476  1
  H  H18  1  0.09113884  0.19631574  0.79866826  1
  H  H19  1  0.15535515  0.33668417  0.88506074  1
  H  H20  1  0.86255358  0.23985015  0.22038337  1
  H  H21  1  0.01608894  0.36215900  0.15958101  1
  H  H22  1  0.56794494  0.87598610  0.44943619  1
  H  H23  1  0.57369727  0.79037751  0.70715864  1
  H  H24  1  0.46161147  0.65198167  0.65706343  1
  H  H25  1  0.45132888  0.75963969  0.24371593  1
  H  H26  1  0.37816168  0.63601345  0.36789304  1
  H  H27  1  0.06770692  0.62392750  0.05052488  1
  H  H28  1  0.07356060  0.70962743  0.79283924  1
  H  H29  1  0.96169782  0.84808898  0.84301673  1
  H  H30  1  0.95130597  0.74030064  0.25630938  1
  H  H31  1  0.87834734  0.86403723  0.13220449  1
  P  P32  1  0.48117226  0.01368373  0.97486442  1
  P  P33  1  0.98116230  0.48629853  0.52512644  1
  Cu  Cu34  1  0.88841363  0.94481848  0.50625393  1
  Cu  Cu35  1  0.38836792  0.55518445  0.99375788  1
  Cl  Cl36  1  0.50829283  0.21497362  0.98447615  1
  Cl  Cl37  1  0.26596929  0.99384336  0.14030811  1
  Cl  Cl38  1  0.76543559  0.02871587  0.28552377  1
  Cl  Cl39  1  0.00827014  0.28500568  0.51551496  1
  Cl  Cl40  1  0.32478838  0.00395434  0.76832950  1
  Cl  Cl41  1  0.81953188  0.01327604  0.74418367  1
  Cl  Cl42  1  0.53207266  0.74005301  0.99392038  1
  Cl  Cl43  1  0.76595124  0.50616216  0.35967420  1
  Cl  Cl44  1  0.26537047  0.47129634  0.21446958  1
  Cl  Cl45  1  0.03207057  0.75991656  0.50614310  1
  Cl  Cl46  1  0.31954732  0.48674307  0.75580556  1
  Cl  Cl47  1  0.82479335  0.49604743  0.73165749  1
