# generated using pymatgen
data_CuH12AuC2(I3N)2
_symmetry_space_group_name_H-M   'P 1'
_cell_length_a   8.11356515
_cell_length_b   11.56769080
_cell_length_c   8.64274332
_cell_angle_alpha   91.80498188
_cell_angle_beta   90.02504696
_cell_angle_gamma   89.99278325
_symmetry_Int_Tables_number   1
_chemical_formula_structural   CuH12AuC2(I3N)2
_chemical_formula_sum   'Cu2 H24 Au2 C4 I12 N4'
_cell_volume   810.76395260
_cell_formula_units_Z   2
loop_
 _symmetry_equiv_pos_site_id
 _symmetry_equiv_pos_as_xyz
  1  'x, y, z'
loop_
 _atom_site_type_symbol
 _atom_site_label
 _atom_site_symmetry_multiplicity
 _atom_site_fract_x
 _atom_site_fract_y
 _atom_site_fract_z
 _atom_site_occupancy
  C  C0  1  0.41865903  0.25186345  0.41276433  1
  C  C1  1  0.91949755  0.24813350  0.08752521  1
  C  C2  1  0.58133699  0.74814309  0.58724238  1
  C  C3  1  0.08050866  0.75187203  0.91248184  1
  N  N4  1  0.55304079  0.25558920  0.52924885  1
  N  N5  1  0.05343150  0.24437175  0.97068843  1
  N  N6  1  0.44695094  0.74441369  0.47076248  1
  N  N7  1  0.94657723  0.75562706  0.02932193  1
  H  H8  1  0.47353876  0.24934009  0.29695823  1
  H  H9  1  0.34537729  0.17394012  0.42911063  1
  H  H10  1  0.34229253  0.32915171  0.42932813  1
  H  H11  1  0.62644854  0.18226785  0.51606873  1
  H  H12  1  0.62892360  0.32679230  0.51241156  1
  H  H13  1  0.51014425  0.26005468  0.64287016  1
  H  H14  1  0.97479366  0.25076234  0.20318345  1
  H  H15  1  0.84314419  0.17081223  0.07125335  1
  H  H16  1  0.84605834  0.32602716  0.07125970  1
  H  H17  1  0.12943132  0.17317565  0.98742102  1
  H  H18  1  0.12685020  0.31770391  0.98365287  1
  H  H19  1  0.01014734  0.23985022  0.85719788  1
  H  H20  1  0.52645595  0.75066439  0.70305104  1
  H  H21  1  0.65770192  0.67085255  0.57067886  1
  H  H22  1  0.65461775  0.82606324  0.57089886  1
  H  H23  1  0.37354641  0.81773928  0.48394097  1
  H  H24  1  0.37107143  0.67321562  0.48759527  1
  H  H25  1  0.48985107  0.73995149  0.35713689  1
  H  H26  1  0.02521296  0.74924160  0.79682521  1
  H  H27  1  0.15685935  0.82919331  0.92875485  1
  H  H28  1  0.15395215  0.67397768  0.92874736  1
  H  H29  1  0.87057240  0.82682454  0.01258749  1
  H  H30  1  0.87316086  0.68229625  0.01635561  1
  H  H31  1  0.98985949  0.76015098  0.14280952  1
  Cu  Cu32  1  0.50003153  0.99999716  0.00005214  1
  Cu  Cu33  1  0.99996999  0.49999047  0.50005331  1
  Au  Au34  1  0.99999706  0.00000253  0.50000312  1
  Au  Au35  1  0.50000362  0.50000126  0.00000325  1
  I  I36  1  0.48890957  0.26736150  0.94674851  1
  I  I37  1  0.24826920  0.00809694  0.15924538  1
  I  I38  1  0.72057658  0.00468500  0.32783118  1
  I  I39  1  0.98845364  0.23258796  0.55351150  1
  I  I40  1  0.27941452  0.99532201  0.67217213  1
  I  I41  1  0.75173375  0.99190454  0.84077069  1
  I  I42  1  0.51109946  0.73264100  0.05326102  1
  I  I43  1  0.74817910  0.49175212  0.34074782  1
  I  I44  1  0.22068934  0.49536942  0.17205293  1
  I  I45  1  0.01153938  0.76741786  0.44649694  1
  I  I46  1  0.25182364  0.50825085  0.65926615  1
  I  I47  1  0.77931891  0.50463467  0.82794745  1
