# generated using pymatgen
data_CaH10PbC2(N2Cl3)2
_symmetry_space_group_name_H-M   'P 1'
_cell_length_a   7.90186969
_cell_length_b   10.93101952
_cell_length_c   7.88606500
_cell_angle_alpha   89.97754428
_cell_angle_beta   89.99978649
_cell_angle_gamma   89.99860878
_symmetry_Int_Tables_number   1
_chemical_formula_structural   CaH10PbC2(N2Cl3)2
_chemical_formula_sum   'Ca2 H20 Pb2 C4 N8 Cl12'
_cell_volume   681.16269078
_cell_formula_units_Z   2
loop_
 _symmetry_equiv_pos_site_id
 _symmetry_equiv_pos_as_xyz
  1  'x, y, z'
loop_
 _atom_site_type_symbol
 _atom_site_label
 _atom_site_symmetry_multiplicity
 _atom_site_fract_x
 _atom_site_fract_y
 _atom_site_fract_z
 _atom_site_occupancy
  C  C0  1  0.49402771  0.29283719  0.49632007  1
  C  C1  1  0.99407403  0.20716186  0.00369061  1
  C  C2  1  0.50599109  0.79283779  0.50346228  1
  C  C3  1  0.00594325  0.70716718  0.99651461  1
  N  N4  1  0.60118708  0.23814730  0.59795264  1
  N  N5  1  0.39113477  0.23828774  0.39041249  1
  N  N6  1  0.10125966  0.26184372  0.90209947  1
  N  N7  1  0.89117405  0.26170459  0.10958954  1
  N  N8  1  0.60852811  0.73827583  0.60983069  1
  N  N9  1  0.39941797  0.73816837  0.40136248  1
  N  N10  1  0.10848055  0.76173737  0.89017906  1
  N  N11  1  0.89932665  0.76182853  0.09860885  1
  H  H12  1  0.48986876  0.39240692  0.50061714  1
  H  H13  1  0.67620823  0.29007409  0.67498764  1
  H  H14  1  0.61316468  0.14548579  0.60533189  1
  H  H15  1  0.31234384  0.29091142  0.31788347  1
  H  H16  1  0.38569711  0.14571095  0.37491545  1
  H  H17  1  0.98989445  0.10758467  0.99936661  1
  H  H18  1  0.17629562  0.20991726  0.82505966  1
  H  H19  1  0.11327249  0.35451105  0.89475231  1
  H  H20  1  0.81234620  0.20907901  0.18209976  1
  H  H21  1  0.88574423  0.35428246  0.12511125  1
  H  H22  1  0.51002691  0.89242413  0.49928764  1
  H  H23  1  0.68533741  0.79090834  0.68436117  1
  H  H24  1  0.61717322  0.64557699  0.62212504  1
  H  H25  1  0.32593693  0.79010329  0.32273205  1
  H  H26  1  0.38422461  0.64562490  0.39719657  1
  H  H27  1  0.00998470  0.60758017  0.00069262  1
  H  H28  1  0.18532649  0.70911230  0.81565712  1
  H  H29  1  0.11712252  0.85443725  0.87789467  1
  H  H30  1  0.82584648  0.70988595  0.17721368  1
  H  H31  1  0.88411515  0.85436917  0.10276878  1
  Ca  Ca32  1  0.49959734  0.99998318  0.99743332  1
  Ca  Ca33  1  0.99959749  0.50003103  0.50257471  1
  Pb  Pb34  1  0.00086313  0.00004128  0.49712086  1
  Pb  Pb35  1  0.50086267  0.49997274  0.00288025  1
  Cl  Cl36  1  0.49855580  0.24361916  0.99408384  1
  Cl  Cl37  1  0.22351964  0.98422059  0.20904708  1
  Cl  Cl38  1  0.70781583  0.01828113  0.27689357  1
  Cl  Cl39  1  0.99850953  0.25639480  0.50596040  1
  Cl  Cl40  1  0.28837394  0.01560819  0.72098473  1
  Cl  Cl41  1  0.77918745  0.98193902  0.78965759  1
  Cl  Cl42  1  0.50188044  0.75640447  0.00542710  1
  Cl  Cl43  1  0.72350026  0.51578460  0.29096837  1
  Cl  Cl44  1  0.20779672  0.48171637  0.22309404  1
  Cl  Cl45  1  0.00194472  0.74360909  0.49453473  1
  Cl  Cl46  1  0.27918472  0.51807477  0.71035161  1
  Cl  Cl47  1  0.78835473  0.48439897  0.77901521  1
