# generated using pymatgen
data_CaHgH10C2(N2Cl3)2
_symmetry_space_group_name_H-M   'P 1'
_cell_length_a   7.88847355
_cell_length_b   10.41962187
_cell_length_c   7.87501067
_cell_angle_alpha   90.05648851
_cell_angle_beta   90.00105040
_cell_angle_gamma   89.99988147
_symmetry_Int_Tables_number   1
_chemical_formula_structural   CaHgH10C2(N2Cl3)2
_chemical_formula_sum   'Ca2 Hg2 H20 C4 N8 Cl12'
_cell_volume   647.28549045
_cell_formula_units_Z   2
loop_
 _symmetry_equiv_pos_site_id
 _symmetry_equiv_pos_as_xyz
  1  'x, y, z'
loop_
 _atom_site_type_symbol
 _atom_site_label
 _atom_site_symmetry_multiplicity
 _atom_site_fract_x
 _atom_site_fract_y
 _atom_site_fract_z
 _atom_site_occupancy
  C  C0  1  0.49512933  0.29317696  0.49642697  1
  C  C1  1  0.99516191  0.20681984  0.00358986  1
  C  C2  1  0.50515645  0.79318589  0.50367330  1
  C  C3  1  0.00510512  0.70682151  0.99631704  1
  N  N4  1  0.60257975  0.23651759  0.59845089  1
  N  N5  1  0.39126665  0.23628955  0.39084709  1
  N  N6  1  0.10263957  0.26347876  0.90159815  1
  N  N7  1  0.89131150  0.26370314  0.10915612  1
  N  N8  1  0.60759489  0.73622233  0.61038478  1
  N  N9  1  0.39855055  0.73660886  0.40053245  1
  N  N10  1  0.10755379  0.76378565  0.88961612  1
  N  N11  1  0.89848446  0.76339242  0.09943706  1
  H  H12  1  0.49139464  0.39754142  0.50002500  1
  H  H13  1  0.67590629  0.29268750  0.67581834  1
  H  H14  1  0.61833211  0.13952952  0.60558319  1
  H  H15  1  0.31472901  0.29289963  0.31726536  1
  H  H16  1  0.38097208  0.13918243  0.37721965  1
  H  H17  1  0.99140483  0.10244948  0.99996011  1
  H  H18  1  0.17596468  0.20730270  0.82421878  1
  H  H19  1  0.11842072  0.36045892  0.89449407  1
  H  H20  1  0.81473677  0.20709706  0.18272622  1
  H  H21  1  0.88102624  0.36081620  0.12280830  1
  H  H22  1  0.50935089  0.89754222  0.50002583  1
  H  H23  1  0.68510449  0.79277925  0.68322712  1
  H  H24  1  0.61527366  0.63920997  0.62631099  1
  H  H25  1  0.32457861  0.79283235  0.32398723  1
  H  H26  1  0.38474331  0.63954492  0.39108812  1
  H  H27  1  0.00931976  0.60246476  -0.00004621  1
  H  H28  1  0.18508131  0.70724475  0.81679111  1
  H  H29  1  0.11522312  0.86080869  0.87370509  1
  H  H30  1  0.82451492  0.70715906  0.17597185  1
  H  H31  1  0.88465883  0.86045080  0.10888354  1
  Ca  Ca32  1  0.49945086  0.99998710  0.99741296  1
  Ca  Ca33  1  0.99945285  0.50002425  0.50259234  1
  Hg  Hg34  1  0.00179789  0.00003943  0.49659070  1
  Hg  Hg35  1  0.50179713  0.49997217  0.00340050  1
  Cl  Cl36  1  0.49832122  0.26562514  0.99588331  1
  Cl  Cl37  1  0.22791323  0.98376046  0.20908491  1
  Cl  Cl38  1  0.70960963  0.01490592  0.27068915  1
  Cl  Cl39  1  0.99827914  0.23438370  0.50416680  1
  Cl  Cl40  1  0.28890906  0.01635211  0.72557258  1
  Cl  Cl41  1  0.77288438  0.98503658  0.78828224  1
  Cl  Cl42  1  0.50050691  0.73441001  0.00448827  1
  Cl  Cl43  1  0.72790148  0.51624316  0.29091810  1
  Cl  Cl44  1  0.20959552  0.48510079  0.22930564  1
  Cl  Cl45  1  0.00054776  0.76560226  0.49547398  1
  Cl  Cl46  1  0.27288657  0.51496752  0.71173012  1
  Cl  Cl47  1  0.78889546  0.48364824  0.77441965  1
