# generated using pymatgen
data_CaH10PtC2(N2Cl3)2
_symmetry_space_group_name_H-M   'P 1'
_cell_length_a   7.66231115
_cell_length_b   9.90934736
_cell_length_c   8.50836388
_cell_angle_alpha   89.32731534
_cell_angle_beta   90.00059415
_cell_angle_gamma   89.98580910
_symmetry_Int_Tables_number   1
_chemical_formula_structural   CaH10PtC2(N2Cl3)2
_chemical_formula_sum   'Ca2 H20 Pt2 C4 N8 Cl12'
_cell_volume   645.98278648
_cell_formula_units_Z   2
loop_
 _symmetry_equiv_pos_site_id
 _symmetry_equiv_pos_as_xyz
  1  'x, y, z'
loop_
 _atom_site_type_symbol
 _atom_site_label
 _atom_site_symmetry_multiplicity
 _atom_site_fract_x
 _atom_site_fract_y
 _atom_site_fract_z
 _atom_site_occupancy
  C  C0  1  0.49100878  0.28623285  0.48929011  1
  C  C1  1  0.99107774  0.21373784  0.01058792  1
  C  C2  1  0.49936469  0.79563279  0.51666790  1
  C  C3  1  -0.00086918  0.70441565  0.98330864  1
  N  N4  1  0.56027801  0.23711563  0.61792413  1
  N  N5  1  0.39538734  0.21974988  0.38757987  1
  N  N6  1  0.06065363  0.26299675  0.88218359  1
  N  N7  1  0.89575115  0.28021124  0.11254416  1
  N  N8  1  0.60149237  0.73574924  0.61837687  1
  N  N9  1  0.43465496  0.74120161  0.38836233  1
  N  N10  1  0.10116629  0.76423127  0.88151130  1
  N  N11  1  0.93444113  0.75895434  0.11158463  1
  H  H12  1  0.51863644  0.39170458  0.46121854  1
  H  H13  1  0.62986416  0.30053963  0.68896471  1
  H  H14  1  0.55352743  0.13841357  0.65321030  1
  H  H15  1  0.35303663  0.26808092  0.28814735  1
  H  H16  1  0.35081786  0.12402039  0.40679501  1
  H  H17  1  0.01816525  0.10809557  0.03822875  1
  H  H18  1  0.13000192  0.19954898  0.81097204  1
  H  H19  1  0.05438087  0.36180569  0.84722681  1
  H  H20  1  0.85295492  0.23165513  0.21166418  1
  H  H21  1  0.85153427  0.37610788  0.09367329  1
  H  H22  1  0.46146215  0.89900904  0.54262041  1
  H  H23  1  0.65148596  0.79197448  0.70878758  1
  H  H24  1  0.63758101  0.63699190  0.61031267  1
  H  H25  1  0.35553162  0.79918446  0.31712357  1
  H  H26  1  0.48452935  0.65320663  0.34535371  1
  H  H27  1  0.96125985  0.60102515  0.95746770  1
  H  H28  1  0.15120336  0.70795073  0.79114809  1
  H  H29  1  0.13721561  0.86299380  0.88948004  1
  H  H30  1  0.85555930  0.70094743  0.18298015  1
  H  H31  1  0.98445429  0.84689496  0.15456266  1
  Ca  Ca32  1  0.56739783  0.98066663  0.06646837  1
  Ca  Ca33  1  0.06747697  0.51906578  0.43362259  1
  Pt  Pt34  1  0.99813679  0.02123438  0.49818658  1
  Pt  Pt35  1  0.49820091  0.47872967  0.00186950  1
  Cl  Cl36  1  0.47404715  0.24561980  0.99711031  1
  Cl  Cl37  1  0.24599363  0.96977612  0.17068590  1
  Cl  Cl38  1  0.75498817  0.01672791  0.33092959  1
  Cl  Cl39  1  0.97382012  0.25433372  0.50325858  1
  Cl  Cl40  1  0.22691761  0.02760801  0.67445890  1
  Cl  Cl41  1  0.74281683  0.98621722  0.81062967  1
  Cl  Cl42  1  0.51064352  0.71236932  0.99973048  1
  Cl  Cl43  1  0.74614902  0.53024156  0.32921891  1
  Cl  Cl44  1  0.25499163  0.48346008  0.16905592  1
  Cl  Cl45  1  0.01078828  0.78758340  0.49998084  1
  Cl  Cl46  1  0.24302077  0.51382892  0.68938317  1
  Cl  Cl47  1  0.72702093  0.47222044  0.82565644  1
