# generated using pymatgen
data_CaH10OsC2(N2Cl3)2
_symmetry_space_group_name_H-M   'P 1'
_cell_length_a   7.54463060
_cell_length_b   10.23774539
_cell_length_c   7.53018263
_cell_angle_alpha   90.12086820
_cell_angle_beta   90.00119246
_cell_angle_gamma   89.99927190
_symmetry_Int_Tables_number   1
_chemical_formula_structural   CaH10OsC2(N2Cl3)2
_chemical_formula_sum   'Ca2 H20 Os2 C4 N8 Cl12'
_cell_volume   581.63006554
_cell_formula_units_Z   2
loop_
 _symmetry_equiv_pos_site_id
 _symmetry_equiv_pos_as_xyz
  1  'x, y, z'
loop_
 _atom_site_type_symbol
 _atom_site_label
 _atom_site_symmetry_multiplicity
 _atom_site_fract_x
 _atom_site_fract_y
 _atom_site_fract_z
 _atom_site_occupancy
  C  C0  1  0.49542431  0.29446697  0.49656970  1
  C  C1  1  0.99545826  0.20552981  0.00344572  1
  C  C2  1  0.50500693  0.79453428  0.50375475  1
  C  C3  1  0.00495932  0.70547137  0.99623485  1
  N  N4  1  0.60595961  0.23600957  0.60343850  1
  N  N5  1  0.38861943  0.23559144  0.38626744  1
  N  N6  1  0.10603146  0.26397774  0.89660108  1
  N  N7  1  0.88867289  0.26439648  0.11373348  1
  N  N8  1  0.61214002  0.73572479  0.61357481  1
  N  N9  1  0.39337221  0.73609992  0.39790456  1
  N  N10  1  0.11210923  0.76429726  0.88642174  1
  N  N11  1  0.89331195  0.76390233  0.10206057  1
  H  H12  1  0.49181720  0.40045952  0.49993966  1
  H  H13  1  0.67990652  0.29164006  0.68816801  1
  H  H14  1  0.62844110  0.13788190  0.60259674  1
  H  H15  1  0.31126922  0.29163277  0.30543090  1
  H  H16  1  0.37102075  0.13692138  0.38125117  1
  H  H17  1  0.99182782  0.09952602  1.00003780  1
  H  H18  1  0.17996427  0.20835215  0.81186953  1
  H  H19  1  0.12852818  0.36210131  0.89748747  1
  H  H20  1  0.81128560  0.20836298  0.19455530  1
  H  H21  1  0.87108773  0.36307433  0.11877473  1
  H  H22  1  0.50951664  0.90052585  0.49997007  1
  H  H23  1  0.69728859  0.79157157  0.68671647  1
  H  H24  1  0.61124774  0.63763301  0.63664437  1
  H  H25  1  0.31247559  0.79184249  0.32026072  1
  H  H26  1  0.38771479  0.63737016  0.38129889  1
  H  H27  1  0.00948906  0.59948413  0.00000492  1
  H  H28  1  0.19726760  0.70845667  0.81329861  1
  H  H29  1  0.11120114  0.86238377  0.86337454  1
  H  H30  1  0.81240951  0.70814862  0.17969252  1
  H  H31  1  0.88763322  0.86262898  0.11867651  1
  Ca  Ca32  1  0.49733099  0.99999712  0.99700333  1
  Ca  Ca33  1  0.99734449  0.50001692  0.50301903  1
  Os  Os34  1  0.00019703  0.99999996  0.49815952  1
  Os  Os35  1  0.50018907  0.50001019  0.00184413  1
  Cl  Cl36  1  0.49952750  0.26231700  0.99737463  1
  Cl  Cl37  1  0.19975300  0.98730480  0.23979130  1
  Cl  Cl38  1  0.74237778  0.01025807  0.29769551  1
  Cl  Cl39  1  0.99949177  0.23769537  0.50267367  1
  Cl  Cl40  1  0.25861826  0.01279665  0.69721232  1
  Cl  Cl41  1  0.80061068  0.98950816  0.75658799  1
  Cl  Cl42  1  0.50037576  0.73772016  0.00431321  1
  Cl  Cl43  1  0.69975547  0.51269039  0.26021243  1
  Cl  Cl44  1  0.24237087  0.48975814  0.20230258  1
  Cl  Cl45  1  0.00041749  0.76229136  0.49565507  1
  Cl  Cl46  1  0.30060074  0.51050194  0.74341102  1
  Cl  Cl47  1  0.75860055  0.48719712  0.80279289  1
