# generated using pymatgen
data_BaCaH10C2(N2Cl3)2
_symmetry_space_group_name_H-M   'P 1'
_cell_length_a   8.02607817
_cell_length_b   11.18326070
_cell_length_c   8.02051184
_cell_angle_alpha   89.89642781
_cell_angle_beta   89.99978891
_cell_angle_gamma   89.99891479
_symmetry_Int_Tables_number   1
_chemical_formula_structural   BaCaH10C2(N2Cl3)2
_chemical_formula_sum   'Ba2 Ca2 H20 C4 N8 Cl12'
_cell_volume   719.90171652
_cell_formula_units_Z   2
loop_
 _symmetry_equiv_pos_site_id
 _symmetry_equiv_pos_as_xyz
  1  'x, y, z'
loop_
 _atom_site_type_symbol
 _atom_site_label
 _atom_site_symmetry_multiplicity
 _atom_site_fract_x
 _atom_site_fract_y
 _atom_site_fract_z
 _atom_site_occupancy
  C  C0  1  0.49466549  0.29053961  0.49697985  1
  C  C1  1  0.99464296  0.20954063  0.00299570  1
  C  C2  1  0.50496483  0.79044535  0.50278893  1
  C  C3  1  0.00488426  0.70947777  0.99723088  1
  N  N4  1  0.60077112  0.23812884  0.59769581  1
  N  N5  1  0.39386377  0.23596271  0.39327576  1
  N  N6  1  0.10079475  0.26194484  0.90231849  1
  N  N7  1  0.89387261  0.26412343  0.10672403  1
  N  N8  1  0.60525019  0.73582691  0.60718230  1
  N  N9  1  0.40020881  0.73803550  0.40087898  1
  N  N10  1  0.10518069  0.76409670  0.89285508  1
  N  N11  1  0.90012685  0.76188430  0.09914767  1
  H  H12  1  0.48953832  0.38788528  0.49983797  1
  H  H13  1  0.67754456  0.28951823  0.66949732  1
  H  H14  1  0.60789677  0.14754677  0.61166186  1
  H  H15  1  0.31258983  0.28604294  0.32433115  1
  H  H16  1  0.39531432  0.14574392  0.37408674  1
  H  H17  1  0.98943907  0.11219794  0.00007408  1
  H  H18  1  0.17754173  0.21054397  0.83048812  1
  H  H19  1  0.10800400  0.35251925  0.88841426  1
  H  H20  1  0.81257061  0.21406301  0.17564296  1
  H  H21  1  0.89539536  0.35434321  0.12597889  1
  H  H22  1  0.50917114  0.88782508  0.50043592  1
  H  H23  1  0.67781099  0.78605191  0.68477616  1
  H  H24  1  0.61844099  0.64508076  0.61208559  1
  H  H25  1  0.33173240  0.78928038  0.32063941  1
  H  H26  1  0.37989480  0.64795210  0.40052030  1
  H  H27  1  0.00907567  0.61209664  0.99956186  1
  H  H28  1  0.17773850  0.71387325  0.81524983  1
  H  H29  1  0.11837478  0.85484116  0.88797849  1
  H  H30  1  0.83165010  0.71063013  0.17937606  1
  H  H31  1  0.87982968  0.85196996  0.09953120  1
  Ca  Ca32  1  0.49991765  0.99999650  0.99713918  1
  Ca  Ca33  1  0.99994442  0.50001082  0.50285207  1
  Ba  Ba34  1  0.00069863  0.00002973  0.49659883  1
  Ba  Ba35  1  0.50071526  0.49997857  0.00339076  1
  Cl  Cl36  1  0.49904972  0.23672894  0.99486844  1
  Cl  Cl37  1  0.22559994  0.98405478  0.19699679  1
  Cl  Cl38  1  0.69851061  0.01872884  0.27326885  1
  Cl  Cl39  1  0.99903483  0.26328232  0.50512721  1
  Cl  Cl40  1  0.29966082  0.01562055  0.72319549  1
  Cl  Cl41  1  0.77551143  0.98164510  0.79810540  1
  Cl  Cl42  1  0.50160604  0.76330799  0.00398083  1
  Cl  Cl43  1  0.72567803  0.51597289  0.30293301  1
  Cl  Cl44  1  0.19855610  0.48127465  0.22674478  1
  Cl  Cl45  1  0.00168644  0.73669574  0.49601505  1
  Cl  Cl46  1  0.27547890  0.51832967  0.70193830  1
  Cl  Cl47  1  0.79959056  0.48439341  0.77670815  1
