# generated using pymatgen
data_CaSnH10C2(N2Cl3)2
_symmetry_space_group_name_H-M   'P 1'
_cell_length_a   7.87493359
_cell_length_b   10.84912260
_cell_length_c   7.85904244
_cell_angle_alpha   90.00070980
_cell_angle_beta   90.00013405
_cell_angle_gamma   89.99940124
_symmetry_Int_Tables_number   1
_chemical_formula_structural   CaSnH10C2(N2Cl3)2
_chemical_formula_sum   'Ca2 Sn2 H20 C4 N8 Cl12'
_cell_volume   671.44609270
_cell_formula_units_Z   2
loop_
 _symmetry_equiv_pos_site_id
 _symmetry_equiv_pos_as_xyz
  1  'x, y, z'
loop_
 _atom_site_type_symbol
 _atom_site_label
 _atom_site_symmetry_multiplicity
 _atom_site_fract_x
 _atom_site_fract_y
 _atom_site_fract_z
 _atom_site_occupancy
  C  C0  1  0.49408541  0.29302709  0.49635416  1
  C  C1  1  0.99412939  0.20696626  0.00365924  1
  C  C2  1  0.50602178  0.79303692  0.50344542  1
  C  C3  1  0.00596513  0.70696788  0.99654010  1
  N  N4  1  0.60146750  0.23793875  0.59833519  1
  N  N5  1  0.39088415  0.23808018  0.39005635  1
  N  N6  1  0.10154525  0.26205639  0.90171205  1
  N  N7  1  0.89092719  0.26191562  0.10994341  1
  N  N8  1  0.60887473  0.73806179  0.61004427  1
  N  N9  1  0.39900181  0.73795766  0.40106189  1
  N  N10  1  0.10882746  0.76194993  0.88996575  1
  N  N11  1  0.89891464  0.76203833  0.09890449  1
  H  H12  1  0.48991887  0.39331910  0.50065881  1
  H  H13  1  0.67626883  0.29026056  0.67609252  1
  H  H14  1  0.61447103  0.14460005  0.60491153  1
  H  H15  1  0.31238807  0.29113274  0.31680953  1
  H  H16  1  0.38450954  0.14476373  0.37528336  1
  H  H17  1  0.98994251  0.10667774  0.99932681  1
  H  H18  1  0.17635531  0.20973229  0.82395607  1
  H  H19  1  0.11458368  0.35539289  0.89516980  1
  H  H20  1  0.81239582  0.20885832  0.18316993  1
  H  H21  1  0.88456079  0.35522487  0.12474198  1
  H  H22  1  0.51014407  0.89332615  0.49922466  1
  H  H23  1  0.68642886  0.79110249  0.68432913  1
  H  H24  1  0.61667383  0.64470545  0.62336554  1
  H  H25  1  0.32486807  0.79031565  0.32268782  1
  H  H26  1  0.38450921  0.64468104  0.39592222  1
  H  H27  1  0.01009866  0.60667860  0.00075862  1
  H  H28  1  0.18641050  0.70891700  0.81569743  1
  H  H29  1  0.11662280  0.85530703  0.87665427  1
  H  H30  1  0.82477267  0.70967346  0.17726108  1
  H  H31  1  0.88440049  0.85531491  0.10404128  1
  Ca  Ca32  1  0.49957489  0.99998303  0.99744903  1
  Ca  Ca33  1  0.99957558  0.50003121  0.50255843  1
  Sn  Sn34  1  0.00126251  0.00003405  0.49730548  1
  Sn  Sn35  1  0.50126073  0.49997943  0.00269386  1
  Cl  Cl36  1  0.49857935  0.24643920  0.99423515  1
  Cl  Cl37  1  0.22246287  0.98438786  0.21159026  1
  Cl  Cl38  1  0.71013031  0.01763407  0.27742439  1
  Cl  Cl39  1  0.99853286  0.25357506  0.50580939  1
  Cl  Cl40  1  0.28580537  0.01545097  0.71975568  1
  Cl  Cl41  1  0.77991339  0.98255599  0.78726078  1
  Cl  Cl42  1  0.50182642  0.75357495  0.00515114  1
  Cl  Cl43  1  0.72244535  0.51561855  0.28842629  1
  Cl  Cl44  1  0.21010625  0.48236322  0.22256021  1
  Cl  Cl45  1  0.00187794  0.74643918  0.49480545  1
  Cl  Cl46  1  0.27991308  0.51745512  0.71275054  1
  Cl  Cl47  1  0.78578436  0.48456025  0.78024393  1
