# generated using pymatgen
data_CaCdH10C2(N2Cl3)2
_symmetry_space_group_name_H-M   'P 1'
_cell_length_a   7.75701550
_cell_length_b   10.50716617
_cell_length_c   7.74313138
_cell_angle_alpha   90.05101833
_cell_angle_beta   89.99850778
_cell_angle_gamma   89.99920594
_symmetry_Int_Tables_number   1
_chemical_formula_structural   CaCdH10C2(N2Cl3)2
_chemical_formula_sum   'Ca2 Cd2 H20 C4 N8 Cl12'
_cell_volume   631.09787169
_cell_formula_units_Z   2
loop_
 _symmetry_equiv_pos_site_id
 _symmetry_equiv_pos_as_xyz
  1  'x, y, z'
loop_
 _atom_site_type_symbol
 _atom_site_label
 _atom_site_symmetry_multiplicity
 _atom_site_fract_x
 _atom_site_fract_y
 _atom_site_fract_z
 _atom_site_occupancy
  C  C0  1  0.49471059  0.29352801  0.49654222  1
  C  C1  1  0.99474801  0.20647151  0.00347284  1
  C  C2  1  0.50544369  0.79352962  0.50358312  1
  C  C3  1  0.00539327  0.70647422  0.99640380  1
  N  N4  1  0.60319695  0.23681173  0.60029033  1
  N  N5  1  0.39005748  0.23669858  0.38896118  1
  N  N6  1  0.10326657  0.26318136  0.89975577  1
  N  N7  1  0.89009354  0.26329755  0.11104711  1
  N  N8  1  0.60975965  0.73668769  0.61130319  1
  N  N9  1  0.39688041  0.73685116  0.39973330  1
  N  N10  1  0.10972157  0.76332505  0.88869884  1
  N  N11  1  0.89680380  0.76314510  0.10023604  1
  H  H12  1  0.49081734  0.39699281  0.50036665  1
  H  H13  1  0.67758127  0.29141558  0.68012765  1
  H  H14  1  0.61936074  0.14061056  0.60530796  1
  H  H15  1  0.31233943  0.29182302  0.31308139  1
  H  H16  1  0.37967235  0.14031484  0.37684125  1
  H  H17  1  0.99083219  0.10300551  0.99962002  1
  H  H18  1  0.17765027  0.20857692  0.81991960  1
  H  H19  1  0.11945871  0.35938307  0.89477174  1
  H  H20  1  0.81234628  0.20817475  0.18690360  1
  H  H21  1  0.87972266  0.35968490  0.12318591  1
  H  H22  1  0.50967922  0.89698441  0.49968333  1
  H  H23  1  0.68973191  0.79176607  0.68501655  1
  H  H24  1  0.61565322  0.64045701  0.62773347  1
  H  H25  1  0.32059438  0.79148090  0.32191220  1
  H  H26  1  0.38484064  0.64048629  0.39036316  1
  H  H27  1  0.00964369  0.60301940  0.00029683  1
  H  H28  1  0.18971974  0.70825250  0.81499786  1
  H  H29  1  0.11560762  0.85955736  0.87228163  1
  H  H30  1  0.82051247  0.70850688  0.17804119  1
  H  H31  1  0.88474574  0.85950796  0.10960508  1
  Ca  Ca32  1  0.49926934  0.99998548  0.99740400  1
  Ca  Ca33  1  0.99927252  0.50002500  0.50260386  1
  Cd  Cd34  1  0.00124581  0.00003026  0.49724612  1
  Cd  Cd35  1  0.50124357  0.49998013  0.00275096  1
  Cl  Cl36  1  0.49857842  0.25811681  0.99603178  1
  Cl  Cl37  1  0.21931484  0.98540390  0.21928934  1
  Cl  Cl38  1  0.72002739  0.01406207  0.27948123  1
  Cl  Cl39  1  0.99853947  0.24188919  0.50401291  1
  Cl  Cl40  1  0.27865614  0.01470850  0.71703470  1
  Cl  Cl41  1  0.78182284  0.98583335  0.77794725  1
  Cl  Cl42  1  0.50082034  0.74190935  0.00438073  1
  Cl  Cl43  1  0.71930303  0.51459919  0.28071696  1
  Cl  Cl44  1  0.22001538  0.48594588  0.22050917  1
  Cl  Cl45  1  0.00086268  0.75810175  0.49558375  1
  Cl  Cl46  1  0.28182093  0.51417772  0.72206332  1
  Cl  Cl47  1  0.77864126  0.48529208  0.78296389  1
