# generated using pymatgen
data_CaH10PdC2(N2Cl3)2
_symmetry_space_group_name_H-M   'P 1'
_cell_length_a   7.67967955
_cell_length_b   10.00998956
_cell_length_c   8.29832366
_cell_angle_alpha   90.20575508
_cell_angle_beta   90.13257117
_cell_angle_gamma   90.03124301
_symmetry_Int_Tables_number   1
_chemical_formula_structural   CaH10PdC2(N2Cl3)2
_chemical_formula_sum   'Ca2 H20 Pd2 C4 N8 Cl12'
_cell_volume   637.91536608
_cell_formula_units_Z   2
loop_
 _symmetry_equiv_pos_site_id
 _symmetry_equiv_pos_as_xyz
  1  'x, y, z'
loop_
 _atom_site_type_symbol
 _atom_site_label
 _atom_site_symmetry_multiplicity
 _atom_site_fract_x
 _atom_site_fract_y
 _atom_site_fract_z
 _atom_site_occupancy
  C  C0  1  0.49915923  0.28690805  0.50066525  1
  C  C1  1  0.99908285  0.21309319  -0.00032588  1
  C  C2  1  0.49989432  0.79807548  0.50740718  1
  C  C3  1  -0.00057009  0.70184456  0.99274885  1
  N  N4  1  0.58747064  0.23067717  0.61681344  1
  N  N5  1  0.40618563  0.22564134  0.38995669  1
  N  N6  1  0.08657498  0.26938449  0.88341379  1
  N  N7  1  0.90594459  0.27425700  0.10994116  1
  N  N8  1  0.59134619  0.73700784  0.61754846  1
  N  N9  1  0.41260194  0.74127703  0.38929775  1
  N  N10  1  0.09042054  0.76305615  0.88269826  1
  N  N11  1  0.91221539  0.75847587  0.11056257  1
  H  H12  1  0.50454072  0.39538711  0.49446594  1
  H  H13  1  0.65292258  0.29130909  0.69623871  1
  H  H14  1  0.60096782  0.13012088  0.63333602  1
  H  H15  1  0.34549341  0.28149293  0.30379901  1
  H  H16  1  0.38045226  0.12572154  0.38911594  1
  H  H17  1  0.00539136  0.10468031  0.00656149  1
  H  H18  1  0.15228805  0.20887942  0.80438406  1
  H  H19  1  0.09926328  0.36995629  0.86643745  1
  H  H20  1  0.84566950  0.21834529  0.19609001  1
  H  H21  1  0.87918850  0.37399115  0.10991433  1
  H  H22  1  0.49493273  0.90650860  0.51485886  1
  H  H23  1  0.65936866  0.79451222  0.69905481  1
  H  H24  1  0.59786243  0.63566537  0.62834394  1
  H  H25  1  0.34049940  0.80026947  0.31303595  1
  H  H26  1  0.42464919  0.64231143  0.36223019  1
  H  H27  1  -0.00506720  0.59339943  0.98543713  1
  H  H28  1  0.15833962  0.70567556  0.80133500  1
  H  H29  1  0.09639392  0.86440228  0.87167694  1
  H  H30  1  0.83998736  0.69945655  0.18642828  1
  H  H31  1  0.92324581  0.85761545  0.13709818  1
  Ca  Ca32  1  0.54280606  0.98438297  0.04761516  1
  Ca  Ca33  1  0.04404498  0.51586309  0.45089553  1
  Pd  Pd34  1  0.99918135  0.01642228  0.49267969  1
  Pd  Pd35  1  0.49888393  0.48369321  0.00724336  1
  Cl  Cl36  1  0.49053806  0.25100322  -0.00015788  1
  Cl  Cl37  1  0.23632630  0.97789584  0.18293502  1
  Cl  Cl38  1  0.75459914  0.01795882  0.31226812  1
  Cl  Cl39  1  0.99082090  0.24914374  0.50014110  1
  Cl  Cl40  1  0.23132742  0.01964881  0.67289270  1
  Cl  Cl41  1  0.75744944  0.98192135  0.80726992  1
  Cl  Cl42  1  0.49441018  0.71643179  0.00198679  1
  Cl  Cl43  1  0.73601395  0.52192398  0.31750314  1
  Cl  Cl44  1  0.25471192  0.48181172  0.18693490  1
  Cl  Cl45  1  0.99464904  0.78371194  0.49808713  1
  Cl  Cl46  1  0.25679855  0.51826811  0.69336494  1
  Cl  Cl47  1  0.73074250  0.48058357  0.82787538  1
