# generated using pymatgen
data_CaH10RuC2(N2Cl3)2
_symmetry_space_group_name_H-M   'P 1'
_cell_length_a   7.58495101
_cell_length_b   10.31439422
_cell_length_c   7.57005648
_cell_angle_alpha   90.13272099
_cell_angle_beta   89.99929306
_cell_angle_gamma   89.99979663
_symmetry_Int_Tables_number   1
_chemical_formula_structural   CaH10RuC2(N2Cl3)2
_chemical_formula_sum   'Ca2 H20 Ru2 C4 N8 Cl12'
_cell_volume   592.23553341
_cell_formula_units_Z   2
loop_
 _symmetry_equiv_pos_site_id
 _symmetry_equiv_pos_as_xyz
  1  'x, y, z'
loop_
 _atom_site_type_symbol
 _atom_site_label
 _atom_site_symmetry_multiplicity
 _atom_site_fract_x
 _atom_site_fract_y
 _atom_site_fract_z
 _atom_site_occupancy
  C  C0  1  0.49535615  0.29410626  0.49646563  1
  C  C1  1  0.99544465  0.20588813  0.00349211  1
  C  C2  1  0.50509547  0.79416309  0.50358460  1
  C  C3  1  0.00504080  0.70583863  0.99640730  1
  N  N4  1  0.60542279  0.23609143  0.60285526  1
  N  N5  1  0.38904375  0.23579072  0.38675990  1
  N  N6  1  0.10547876  0.26388097  0.89719567  1
  N  N7  1  0.88905063  0.26422368  0.11328037  1
  N  N8  1  0.61179142  0.73581932  0.61286419  1
  N  N9  1  0.39401185  0.73621001  0.39813657  1
  N  N10  1  0.11174710  0.76418902  0.88714079  1
  N  N11  1  0.89393729  0.76378398  0.10183785  1
  H  H12  1  0.49185347  0.39941672  0.49991939  1
  H  H13  1  0.67955581  0.29121331  0.68681598  1
  H  H14  1  0.62625773  0.13854658  0.60322465  1
  H  H15  1  0.31148782  0.29131082  0.30675855  1
  H  H16  1  0.37312808  0.13775054  0.38024882  1
  H  H17  1  0.99187179  0.10059535  1.00005060  1
  H  H18  1  0.17960094  0.20879469  0.81323672  1
  H  H19  1  0.12635028  0.36144713  0.89685112  1
  H  H20  1  0.81151308  0.20869637  0.19321451  1
  H  H21  1  0.87319084  0.36225088  0.11977594  1
  H  H22  1  0.50952032  0.89942764  0.49991251  1
  H  H23  1  0.69600673  0.79116562  0.68632261  1
  H  H24  1  0.61225557  0.63828839  0.63417327  1
  H  H25  1  0.31385714  0.79142810  0.32050178  1
  H  H26  1  0.38704305  0.63814592  0.38317662  1
  H  H27  1  0.00948189  0.60057573  0.00006902  1
  H  H28  1  0.19598006  0.70885050  0.81369700  1
  H  H29  1  0.11220467  0.86172248  0.86584834  1
  H  H30  1  0.81378855  0.70856274  0.17945158  1
  H  H31  1  0.88695369  0.86184485  0.11680222  1
  Ca  Ca32  1  0.49816904  0.99999203  0.99732468  1
  Ca  Ca33  1  0.99817630  0.50001790  0.50268688  1
  Ru  Ru34  1  0.00059904  0.99999071  0.49858586  1
  Ru  Ru35  1  0.50059509  0.50001592  0.00141197  1
  Cl  Cl36  1  0.49937497  0.26070775  0.99696575  1
  Cl  Cl37  1  0.20538836  0.98666484  0.23321871  1
  Cl  Cl38  1  0.73456573  0.01129974  0.29145133  1
  Cl  Cl39  1  0.99933605  0.23930301  0.50307947  1
  Cl  Cl40  1  0.26440690  0.01334063  0.70221100  1
  Cl  Cl41  1  0.79519147  0.98858202  0.76326528  1
  Cl  Cl42  1  0.50066367  0.73931891  0.00420895  1
  Cl  Cl43  1  0.70538522  0.51333074  0.26678149  1
  Cl  Cl44  1  0.23454975  0.48871610  0.20854891  1
  Cl  Cl45  1  0.00071091  0.76068800  0.49575626  1
  Cl  Cl46  1  0.29519157  0.51142811  0.73674017  1
  Cl  Cl47  1  0.76439307  0.48664697  0.79779657  1
