# generated using pymatgen
data_SrCaH10C2(N2Cl3)2
_symmetry_space_group_name_H-M   'P 1'
_cell_length_a   7.91084899
_cell_length_b   10.92626898
_cell_length_c   7.89501279
_cell_angle_alpha   89.93592234
_cell_angle_beta   89.99914296
_cell_angle_gamma   89.99805278
_symmetry_Int_Tables_number   1
_chemical_formula_structural   SrCaH10C2(N2Cl3)2
_chemical_formula_sum   'Sr2 Ca2 H20 C4 N8 Cl12'
_cell_volume   682.41340278
_cell_formula_units_Z   2
loop_
 _symmetry_equiv_pos_site_id
 _symmetry_equiv_pos_as_xyz
  1  'x, y, z'
loop_
 _atom_site_type_symbol
 _atom_site_label
 _atom_site_symmetry_multiplicity
 _atom_site_fract_x
 _atom_site_fract_y
 _atom_site_fract_z
 _atom_site_occupancy
  C  C0  1  0.49447404  0.29231868  0.49634931  1
  C  C1  1  0.99450553  0.20768162  0.00366457  1
  C  C2  1  0.50544352  0.79231877  0.50347366  1
  C  C3  1  0.00540178  0.70768552  0.99650619  1
  N  N4  1  0.60153977  0.23783198  0.59802150  1
  N  N5  1  0.39163364  0.23791263  0.39048162  1
  N  N6  1  0.10160620  0.26216572  0.90201796  1
  N  N7  1  0.89165742  0.26208532  0.10953440  1
  N  N8  1  0.60807973  0.73787405  0.60965374  1
  N  N9  1  0.39896175  0.73785259  0.40130259  1
  N  N10  1  0.10803794  0.76213975  0.89034722  1
  N  N11  1  0.89888577  0.76214060  0.09867234  1
  H  H12  1  0.49032727  0.39193767  0.50041172  1
  H  H13  1  0.67732134  0.29019457  0.67362610  1
  H  H14  1  0.61225539  0.14510402  0.60830704  1
  H  H15  1  0.31201823  0.29081690  0.31937606  1
  H  H16  1  0.38703769  0.14542413  0.37285305  1
  H  H17  1  0.99034320  0.10805976  0.99957030  1
  H  H18  1  0.17738067  0.20979868  0.82641775  1
  H  H19  1  0.11234586  0.35489329  0.89176713  1
  H  H20  1  0.81201866  0.20918255  0.18061324  1
  H  H21  1  0.88708484  0.35456697  0.12717394  1
  H  H22  1  0.50921276  0.89195724  0.49957150  1
  H  H23  1  0.68335288  0.79085469  0.68506930  1
  H  H24  1  0.61954896  0.64513723  0.62056153  1
  H  H25  1  0.32687195  0.79016957  0.32192737  1
  H  H26  1  0.38168553  0.64539274  0.39784622  1
  H  H27  1  0.00918293  0.60804671  0.00040813  1
  H  H28  1  0.18334344  0.70916675  0.81494001  1
  H  H29  1  0.11949919  0.85487675  0.87945460  1
  H  H30  1  0.82679971  0.70981739  0.17803374  1
  H  H31  1  0.88159222  0.85460163  0.10213366  1
  Ca  Ca32  1  0.49945780  0.99999154  0.99736518  1
  Ca  Ca33  1  0.99945881  0.50001998  0.50264231  1
  Sr  Sr34  1  0.00070930  0.00002979  0.49703698  1
  Sr  Sr35  1  0.50070908  0.49998129  0.00296471  1
  Cl  Cl36  1  0.49904681  0.24368609  0.99488329  1
  Cl  Cl37  1  0.22623915  0.98538580  0.21191291  1
  Cl  Cl38  1  0.71223231  0.01554338  0.27360536  1
  Cl  Cl39  1  0.99900784  0.25632576  0.50515551  1
  Cl  Cl40  1  0.28535551  0.01442688  0.72380617  1
  Cl  Cl41  1  0.77573456  0.98469721  0.78502356  1
  Cl  Cl42  1  0.50152501  0.75634292  0.00450662  1
  Cl  Cl43  1  0.72622518  0.51462212  0.28809801  1
  Cl  Cl44  1  0.21222067  0.48444439  0.22638493  1
  Cl  Cl45  1  0.00157854  0.74366805  0.49545574  1
  Cl  Cl46  1  0.27573020  0.51530893  0.71498410  1
  Cl  Cl47  1  0.78533873  0.48558238  0.77619194  1
