# generated using pymatgen
data_CuH12IrC2(I3N)2
_symmetry_space_group_name_H-M   'P 1'
_cell_length_a   8.68066968
_cell_length_b   9.64899017
_cell_length_c   8.91374584
_cell_angle_alpha   91.67243583
_cell_angle_beta   90.12781611
_cell_angle_gamma   89.98399576
_symmetry_Int_Tables_number   1
_chemical_formula_structural   CuH12IrC2(I3N)2
_chemical_formula_sum   'Cu2 H24 Ir2 C4 I12 N4'
_cell_volume   746.29272668
_cell_formula_units_Z   2
loop_
 _symmetry_equiv_pos_site_id
 _symmetry_equiv_pos_as_xyz
  1  'x, y, z'
loop_
 _atom_site_type_symbol
 _atom_site_label
 _atom_site_symmetry_multiplicity
 _atom_site_fract_x
 _atom_site_fract_y
 _atom_site_fract_z
 _atom_site_occupancy
  C  C0  1  0.46281868  0.25454477  0.43946449  1
  C  C1  1  0.96921945  0.24661682  0.06490153  1
  C  C2  1  0.53232881  0.74543994  0.56671269  1
  C  C3  1  0.02985761  0.75655160  0.93640725  1
  N  N4  1  0.54703552  0.24994226  0.58373374  1
  N  N5  1  0.05257387  0.25145370  0.92097999  1
  N  N6  1  0.44128171  0.75347355  0.42679648  1
  N  N7  1  0.94574246  0.74533491  0.07946895  1
  H  H8  1  0.54578436  0.25637743  0.34765193  1
  H  H9  1  0.38979873  0.16246804  0.42797576  1
  H  H10  1  0.39082329  0.34766010  0.43988611  1
  H  H11  1  0.61669444  0.16260123  0.59261494  1
  H  H12  1  0.61824307  0.33523686  0.60386898  1
  H  H13  1  0.47038357  0.24927616  0.67305748  1
  H  H14  1  0.05199351  0.24743726  0.15739416  1
  H  H15  1  0.90072781  0.15141058  0.06624272  1
  H  H16  1  0.89238063  0.33630244  0.07375162  1
  H  H17  1  0.12265647  0.16550902  0.89993069  1
  H  H18  1  0.12342786  0.33841951  0.91261105  1
  H  H19  1  0.97554966  0.25441282  0.83182396  1
  H  H20  1  0.45344834  0.74513058  0.66198545  1
  H  H21  1  0.60165789  0.65071887  0.56302759  1
  H  H22  1  0.60800292  0.83579991  0.57580303  1
  H  H23  1  0.37200303  0.84166265  0.42423301  1
  H  H24  1  0.36811511  0.66927475  0.40892723  1
  H  H25  1  0.51216713  0.75600346  0.33337203  1
  H  H26  1  0.94591213  0.75906773  0.84513915  1
  H  H27  1  0.09897221  0.85131797  0.94033515  1
  H  H28  1  0.10498422  0.66613088  0.92163654  1
  H  H29  1  0.87210103  0.82867640  0.10123259  1
  H  H30  1  0.87827242  0.65651276  0.08201977  1
  H  H31  1  0.02180161  0.74370259  0.16947827  1
  Cu  Cu32  1  0.66007294  0.00163021  0.02142017  1
  Cu  Cu33  1  0.97808898  0.49884081  0.34588072  1
  Ir  Ir34  1  0.99737470  0.99696427  0.49446549  1
  Ir  Ir35  1  0.50571174  0.49810241  0.00296550  1
  I  I36  1  0.47967346  0.21544509  0.00756253  1
  I  I37  1  0.18702890  0.98345436  0.25874154  1
  I  I38  1  0.74335852  0.98926561  0.31233137  1
  I  I39  1  0.99609689  0.28128991  0.50994461  1
  I  I40  1  0.24164943  0.00594615  0.68195458  1
  I  I41  1  0.79847730  0.01472919  0.74291671  1
  I  I42  1  0.48595273  0.78143545  0.99597351  1
  I  I43  1  0.68974910  0.51427027  0.25224236  1
  I  I44  1  0.25072258  0.51005395  0.19333249  1
  I  I45  1  0.00895691  0.71568172  0.52143148  1
  I  I46  1  0.31109634  0.48680383  0.76699536  1
  I  I47  1  0.74925365  0.49169745  0.81967384  1
