# generated using pymatgen
data_CaGeH10C2(N2Cl3)2
_symmetry_space_group_name_H-M   'P 1'
_cell_length_a   7.78950369
_cell_length_b   10.62099499
_cell_length_c   7.77426259
_cell_angle_alpha   90.09174121
_cell_angle_beta   90.00009872
_cell_angle_gamma   90.00093105
_symmetry_Int_Tables_number   1
_chemical_formula_structural   CaGeH10C2(N2Cl3)2
_chemical_formula_sum   'Ca2 Ge2 H20 C4 N8 Cl12'
_cell_volume   643.18164220
_cell_formula_units_Z   2
loop_
 _symmetry_equiv_pos_site_id
 _symmetry_equiv_pos_as_xyz
  1  'x, y, z'
loop_
 _atom_site_type_symbol
 _atom_site_label
 _atom_site_symmetry_multiplicity
 _atom_site_fract_x
 _atom_site_fract_y
 _atom_site_fract_z
 _atom_site_occupancy
  C  C0  1  0.49490509  0.29286280  0.49644912  1
  C  C1  1  0.99495786  0.20713130  0.00355086  1
  C  C2  1  0.50537869  0.79287669  0.50323699  1
  C  C3  1  0.00536127  0.70713069  0.99672905  1
  N  N4  1  0.60309939  0.23675134  0.59967173  1
  N  N5  1  0.39066699  0.23683152  0.38912175  1
  N  N6  1  0.10316922  0.26323755  0.90037169  1
  N  N7  1  0.89069372  0.26315790  0.11090157  1
  N  N8  1  0.60933277  0.73678696  0.61070034  1
  N  N9  1  0.39718400  0.73683540  0.39982987  1
  N  N10  1  0.10928641  0.76322249  0.88931560  1
  N  N11  1  0.89710719  0.76316556  0.10015434  1
  H  H12  1  0.49097119  0.39528335  0.50055668  1
  H  H13  1  0.67695410  0.29077764  0.67938240  1
  H  H14  1  0.61955015  0.14160898  0.60485872  1
  H  H15  1  0.31315475  0.29157604  0.31385873  1
  H  H16  1  0.38041429  0.14152989  0.37631127  1
  H  H17  1  0.99098736  0.10471060  0.99942515  1
  H  H18  1  0.17702337  0.20921526  0.82065362  1
  H  H19  1  0.11965291  0.35838608  0.89521448  1
  H  H20  1  0.81318094  0.20842218  0.18612078  1
  H  H21  1  0.88047885  0.35846364  0.12371721  1
  H  H22  1  0.50974876  0.89528160  0.49930320  1
  H  H23  1  0.68881806  0.79142539  0.68413679  1
  H  H24  1  0.61521990  0.64166028  0.62734633  1
  H  H25  1  0.32127249  0.79096455  0.32241524  1
  H  H26  1  0.38439837  0.64151588  0.39044217  1
  H  H27  1  0.00972366  0.60472544  0.00068402  1
  H  H28  1  0.18881433  0.70859943  0.81587800  1
  H  H29  1  0.11518121  0.85836079  0.87266474  1
  H  H30  1  0.82121135  0.70902248  0.17754028  1
  H  H31  1  0.88431479  0.85847440  0.10952886  1
  Ca  Ca32  1  0.49952186  0.99999052  0.99740321  1
  Ca  Ca33  1  0.99952600  0.50002189  0.50260794  1
  Ge  Ge34  1  0.00284002  0.00000057  0.49770606  1
  Ge  Ge35  1  0.50284135  0.50000741  0.00228508  1
  Cl  Cl36  1  0.49887016  0.25407415  0.99577551  1
  Cl  Cl37  1  0.22032416  0.98535007  0.22067517  1
  Cl  Cl38  1  0.71997040  0.01390535  0.27699309  1
  Cl  Cl39  1  0.99881577  0.24594051  0.50426664  1
  Cl  Cl40  1  0.27650973  0.01451796  0.71739155  1
  Cl  Cl41  1  0.77982414  0.98620388  0.77717424  1
  Cl  Cl42  1  0.50107867  0.74588790  0.00367306  1
  Cl  Cl43  1  0.72032400  0.51465328  0.27933844  1
  Cl  Cl44  1  0.21994756  0.48609414  0.22300376  1
  Cl  Cl45  1  0.00109612  0.75412766  0.49628696  1
  Cl  Cl46  1  0.27983386  0.51380535  0.72284132  1
  Cl  Cl47  1  0.77648213  0.48548821  0.78261111  1
