# generated using pymatgen
data_CaGaH10C2(N2Cl3)2
_symmetry_space_group_name_H-M   'P 1'
_cell_length_a   7.74913457
_cell_length_b   10.53760825
_cell_length_c   8.31497983
_cell_angle_alpha   87.96449115
_cell_angle_beta   89.68594802
_cell_angle_gamma   90.24578700
_symmetry_Int_Tables_number   1
_chemical_formula_structural   CaGaH10C2(N2Cl3)2
_chemical_formula_sum   'Ca2 Ga2 H20 C4 N8 Cl12'
_cell_volume   678.53371482
_cell_formula_units_Z   2
loop_
 _symmetry_equiv_pos_site_id
 _symmetry_equiv_pos_as_xyz
  1  'x, y, z'
loop_
 _atom_site_type_symbol
 _atom_site_label
 _atom_site_symmetry_multiplicity
 _atom_site_fract_x
 _atom_site_fract_y
 _atom_site_fract_z
 _atom_site_occupancy
  C  C0  1  0.48920028  0.30232524  0.48904477  1
  C  C1  1  0.95828764  0.28672731  0.00051891  1
  C  C2  1  0.50831231  0.70664209  0.48822624  1
  C  C3  1  0.99132978  0.69693013  0.00324864  1
  N  N4  1  0.60395663  0.24608854  0.58238469  1
  N  N5  1  0.40578190  0.24742566  0.37372712  1
  N  N6  1  0.10242785  0.28890211  0.91635265  1
  N  N7  1  0.92246552  0.20459795  0.11800415  1
  N  N8  1  0.55596998  0.78742896  0.59574546  1
  N  N9  1  0.40605761  0.73255193  0.36625257  1
  N  N10  1  0.11616766  0.74662457  0.91380566  1
  N  N11  1  0.92203273  0.75024549  0.12826463  1
  H  H12  1  0.45832505  0.40087404  0.51202466  1
  H  H13  1  0.65788783  0.29644302  0.67222223  1
  H  H14  1  0.64157900  0.15499068  0.56464438  1
  H  H15  1  0.32687220  0.30294337  0.30230136  1
  H  H16  1  0.43329494  0.15598910  0.34466141  1
  H  H17  1  0.00618663  0.13254706  0.15065659  1
  H  H18  1  0.20589865  0.23239560  0.94527642  1
  H  H19  1  0.12781210  0.36417409  0.83712505  1
  H  H20  1  0.80409454  0.20538452  0.17194735  1
  H  H21  1  0.86067178  0.35731401  0.96811190  1
  H  H22  1  0.50826709  0.87741873  0.59593169  1
  H  H23  1  0.62252087  0.75626097  0.69505680  1
  H  H24  1  0.56208224  0.61137580  0.49950178  1
  H  H25  1  0.34653697  0.81832243  0.34862876  1
  H  H26  1  0.36721852  0.65963323  0.29635050  1
  H  H27  1  0.93950746  0.60533553  0.96912200  1
  H  H28  1  0.16854579  0.69341443  0.82486310  1
  H  H29  1  0.17632959  0.82855807  0.94503853  1
  H  H30  1  0.82443747  0.70197153  0.18720435  1
  H  H31  1  0.96500100  0.83536144  0.16841122  1
  Ca  Ca32  1  0.51771128  0.99499617  0.04333570  1
  Ca  Ca33  1  0.98199902  0.46654493  0.48012411  1
  Ga  Ga34  1  0.03235758  0.00694161  0.62813417  1
  Ga  Ga35  1  0.48657757  0.50041683  0.98521676  1
  Cl  Cl36  1  0.51597788  0.23779586  0.97443364  1
  Cl  Cl37  1  0.20282000  0.98488703  0.16846417  1
  Cl  Cl38  1  0.65869771  0.00892302  0.32779891  1
  Cl  Cl39  1  0.00610539  0.19134119  0.48900866  1
  Cl  Cl40  1  0.29946088  0.02115705  0.72455204  1
  Cl  Cl41  1  0.82956909  0.00997394  0.81703766  1
  Cl  Cl42  1  0.53607303  0.75880532  0.97033363  1
  Cl  Cl43  1  0.73041539  0.49471266  0.26523003  1
  Cl  Cl44  1  0.20411376  0.48743344  0.23392296  1
  Cl  Cl45  1  0.01083690  0.82717814  0.50687458  1
  Cl  Cl46  1  0.23548206  0.51915607  0.68516768  1
  Cl  Cl47  1  0.76676215  0.50260211  0.72581450  1
