# generated using pymatgen
data_CaZnH10C2(N2Cl3)2
_symmetry_space_group_name_H-M   'P 1'
_cell_length_a   8.25516570
_cell_length_b   9.49067919
_cell_length_c   8.09731882
_cell_angle_alpha   91.07998808
_cell_angle_beta   89.99989896
_cell_angle_gamma   90.00033091
_symmetry_Int_Tables_number   1
_chemical_formula_structural   CaZnH10C2(N2Cl3)2
_chemical_formula_sum   'Ca2 Zn2 H20 C4 N8 Cl12'
_cell_volume   634.28898734
_cell_formula_units_Z   2
loop_
 _symmetry_equiv_pos_site_id
 _symmetry_equiv_pos_as_xyz
  1  'x, y, z'
loop_
 _atom_site_type_symbol
 _atom_site_label
 _atom_site_symmetry_multiplicity
 _atom_site_fract_x
 _atom_site_fract_y
 _atom_site_fract_z
 _atom_site_occupancy
  C  C0  1  0.49376831  0.29662544  0.52315938  1
  C  C1  1  0.99377165  0.20338385  0.97683282  1
  C  C2  1  0.51257868  0.77732246  0.49026091  1
  C  C3  1  0.01258657  0.72267105  0.00973521  1
  N  N4  1  0.61636035  0.23378649  0.59368623  1
  N  N5  1  0.41730374  0.24915276  0.39183770  1
  N  N6  1  0.11638791  0.26624546  0.90631936  1
  N  N7  1  0.91731511  0.25083009  0.10814930  1
  N  N8  1  0.57255621  0.71701651  0.62115947  1
  N  N9  1  0.39108968  0.72839305  0.40230786  1
  N  N10  1  0.07252692  0.78299943  0.87883173  1
  N  N11  1  0.89108704  0.77160092  0.09770994  1
  H  H12  1  0.44849685  0.39358792  0.58124412  1
  H  H13  1  0.66643022  0.27810064  0.69735624  1
  H  H14  1  0.66644885  0.14264360  0.54888407  1
  H  H15  1  0.32839549  0.30988240  0.33955629  1
  H  H16  1  0.45964858  0.16220036  0.32860566  1
  H  H17  1  0.94851230  0.10643477  0.91871046  1
  H  H18  1  0.16645900  0.22194386  0.80265319  1
  H  H19  1  0.16646410  0.35736591  0.95117063  1
  H  H20  1  0.82840912  0.19009469  0.16041559  1
  H  H21  1  0.95965231  0.33776974  0.17141566  1
  H  H22  1  0.57029109  0.87404878  0.44889327  1
  H  H23  1  0.65735171  0.77224018  0.68895763  1
  H  H24  1  0.51446075  0.63464988  0.67467644  1
  H  H25  1  0.35675511  0.77921433  0.29821754  1
  H  H26  1  0.33223117  0.63667920  0.42814914  1
  H  H27  1  0.07030667  0.62595369  0.05109278  1
  H  H28  1  0.15734050  0.72777662  0.81102761  1
  H  H29  1  0.01443002  0.86535481  0.82533233  1
  H  H30  1  0.85677322  0.72076697  0.20179170  1
  H  H31  1  0.83222795  0.86331215  0.07188252  1
  Ca  Ca32  1  0.48178283  0.99860143  0.97875594  1
  Ca  Ca33  1  0.98179153  0.50139950  0.52126061  1
  Zn  Zn34  1  0.11785438  0.99873514  0.46717777  1
  Zn  Zn35  1  0.61787127  0.50127230  0.03284115  1
  Cl  Cl36  1  0.48547000  0.29339520  0.98982891  1
  Cl  Cl37  1  0.22062206  0.99244363  0.20242463  1
  Cl  Cl38  1  0.67106796  0.02290514  0.24580388  1
  Cl  Cl39  1  0.98543320  0.20661140  0.51015973  1
  Cl  Cl40  1  0.29868218  0.00807958  0.68790302  1
  Cl  Cl41  1  0.74727323  0.97151467  0.79798903  1
  Cl  Cl42  1  0.47302877  0.70505733  0.00936008  1
  Cl  Cl43  1  0.72063237  0.50753667  0.29759600  1
  Cl  Cl44  1  0.17105319  0.47709432  0.25419776  1
  Cl  Cl45  1  0.97305245  0.79494061  0.49065243  1
  Cl  Cl46  1  0.24728550  0.52850401  0.70201459  1
  Cl  Cl47  1  0.79870124  0.49192404  0.81211648  1
