# generated using pymatgen
data_CaScH10C2(N2Cl3)2
_symmetry_space_group_name_H-M   'P 1'
_cell_length_a   8.93163330
_cell_length_b   8.49046488
_cell_length_c   8.71065552
_cell_angle_alpha   90.42606758
_cell_angle_beta   85.06586426
_cell_angle_gamma   89.17395397
_symmetry_Int_Tables_number   1
_chemical_formula_structural   CaScH10C2(N2Cl3)2
_chemical_formula_sum   'Ca2 Sc2 H20 C4 N8 Cl12'
_cell_volume   658.02015943
_cell_formula_units_Z   2
loop_
 _symmetry_equiv_pos_site_id
 _symmetry_equiv_pos_as_xyz
  1  'x, y, z'
loop_
 _atom_site_type_symbol
 _atom_site_label
 _atom_site_symmetry_multiplicity
 _atom_site_fract_x
 _atom_site_fract_y
 _atom_site_fract_z
 _atom_site_occupancy
  C  C0  1  0.54529496  0.26478462  0.46261158  1
  C  C1  1  0.95753787  0.27811944  0.01746374  1
  C  C2  1  0.43041511  0.74158720  0.51500494  1
  C  C3  1  0.99925707  0.82048011  0.02140424  1
  N  N4  1  0.53494468  0.27642607  0.61774448  1
  N  N5  1  0.42969322  0.24914659  0.38384937  1
  N  N6  1  0.09184143  0.22809783  0.96355182  1
  N  N7  1  0.92636378  0.33952395  0.15494785  1
  N  N8  1  0.55755859  0.77348235  0.58005667  1
  N  N9  1  0.39390183  0.80418416  0.38784864  1
  N  N10  1  0.32702542  0.66037892  0.88907918  1
  N  N11  1  0.95433050  0.68645537  0.97775534  1
  H  H12  1  0.32192485  0.25967861  0.43471307  1
  H  H13  1  0.62756769  0.32579350  0.66065119  1
  H  H14  1  0.65698008  0.26470765  0.40255072  1
  H  H15  1  0.44317395  0.24550373  0.26567379  1
  H  H16  1  0.46521241  0.87102892  0.31749476  1
  H  H17  1  0.18246350  0.23706322  0.02735957  1
  H  H18  1  0.11170867  0.17951903  0.85543314  1
  H  H19  1  0.86598042  0.26848358  0.94227437  1
  H  H20  1  0.82248481  0.39212150  0.18515113  1
  H  H21  1  0.00873700  0.35387395  0.22829102  1
  H  H22  1  0.64433929  0.82241512  0.51059534  1
  H  H23  1  0.58913182  0.69250866  0.65999587  1
  H  H24  1  0.43282171  0.32436906  0.66608980  1
  H  H25  1  0.29430828  0.77336692  0.34681591  1
  H  H26  1  0.35199183  0.65982766  0.57513970  1
  H  H27  1  0.23302771  0.59201001  0.90033336  1
  H  H28  1  0.29628276  0.76143394  0.83653057  1
  H  H29  1  0.08766697  0.88086482  0.95057018  1
  H  H30  1  0.86876073  0.64560189  0.05409821  1
  H  H31  1  0.95205620  0.87980315  0.12723200  1
  Ca  Ca32  1  0.50740586  0.02115062  0.79236354  1
  Ca  Ca33  1  0.97258764  0.57077003  0.71674409  1
  Sc  Sc34  1  0.97011060  0.02977271  0.49693437  1
  Sc  Sc35  1  0.46361099  0.57385596  0.03651278  1
  Cl  Cl36  1  0.46725723  0.26322589  0.99586161  1
  Cl  Cl37  1  0.15428114  0.06960139  0.28862297  1
  Cl  Cl38  1  0.76202953  0.99223445  0.34430711  1
  Cl  Cl39  1  0.89978895  0.31217633  0.53325220  1
  Cl  Cl40  1  0.22196728  0.00530346  0.68607681  1
  Cl  Cl41  1  0.81491678  0.98869701  0.74966981  1
  Cl  Cl42  1  0.54287100  0.86274866  0.04828755  1
  Cl  Cl43  1  0.65141377  0.55153551  0.23924073  1
  Cl  Cl44  1  0.24969690  0.51398061  0.21814633  1
  Cl  Cl45  1  0.00992468  0.74194015  0.46663576  1
  Cl  Cl46  1  0.22264554  0.41696846  0.65061828  1
  Cl  Cl47  1  0.68472627  0.53346020  0.81851929  1
