# generated using pymatgen
data_ScTlH10C2(N2Cl3)2
_symmetry_space_group_name_H-M   'P 1'
_cell_length_a   7.89696961
_cell_length_b   10.92693268
_cell_length_c   7.88000285
_cell_angle_alpha   89.70663562
_cell_angle_beta   90.00113349
_cell_angle_gamma   90.00151177
_symmetry_Int_Tables_number   1
_chemical_formula_structural   ScTlH10C2(N2Cl3)2
_chemical_formula_sum   'Sc2 Tl2 H20 C4 N8 Cl12'
_cell_volume   679.95381602
_cell_formula_units_Z   2
loop_
 _symmetry_equiv_pos_site_id
 _symmetry_equiv_pos_as_xyz
  1  'x, y, z'
loop_
 _atom_site_type_symbol
 _atom_site_label
 _atom_site_symmetry_multiplicity
 _atom_site_fract_x
 _atom_site_fract_y
 _atom_site_fract_z
 _atom_site_occupancy
  C  C0  1  0.49451212  0.29251205  0.49597463  1
  C  C1  1  0.99456322  0.20750171  0.00403141  1
  C  C2  1  0.50544496  0.79251541  0.50325114  1
  C  C3  1  0.00539006  0.70748112  0.99674731  1
  N  N4  1  0.60314555  0.23798459  0.59678055  1
  N  N5  1  0.39029649  0.23827800  0.39105357  1
  N  N6  1  0.10322147  0.26202558  0.90325354  1
  N  N7  1  0.89033620  0.26172413  0.10895344  1
  N  N8  1  0.60737596  0.73811953  0.61090943  1
  N  N9  1  0.39996428  0.73811747  0.39964359  1
  N  N10  1  0.10732510  0.76189604  0.88910758  1
  N  N11  1  0.89989426  0.76186308  0.10032438  1
  H  H12  1  0.49010539  0.39206827  0.49995860  1
  H  H13  1  0.68109669  0.29051760  0.66976109  1
  H  H14  1  0.61109349  0.14534488  0.61136164  1
  H  H15  1  0.30802734  0.29139423  0.32292346  1
  H  H16  1  0.38867055  0.14616062  0.36987509  1
  H  H17  1  0.99013510  0.10793210  1.00002675  1
  H  H18  1  0.18118659  0.20949290  0.83027292  1
  H  H19  1  0.11120113  0.35466422  0.88869368  1
  H  H20  1  0.80804947  0.20861059  0.17705649  1
  H  H21  1  0.88872982  0.35383701  0.13014732  1
  H  H22  1  0.50885284  0.89213192  0.49917486  1
  H  H23  1  0.67960886  0.79133146  0.68890005  1
  H  H24  1  0.62292935  0.64553799  0.61923047  1
  H  H25  1  0.33039673  0.79063596  0.31798268  1
  H  H26  1  0.37910361  0.64595069  0.39920795  1
  H  H27  1  0.00881892  0.60786790  0.00082129  1
  H  H28  1  0.17958947  0.70868194  0.81112448  1
  H  H29  1  0.12287080  0.85446437  0.88078697  1
  H  H30  1  0.83031784  0.70934339  0.18198207  1
  H  H31  1  0.87900643  0.85403727  0.10076362  1
  Sc  Sc32  1  0.49920019  0.00001858  0.99794518  1
  Sc  Sc33  1  0.99919722  0.49998781  0.50206282  1
  Tl  Tl34  1  0.00057539  0.00004684  0.49667574  1
  Tl  Tl35  1  0.50057719  0.49996121  0.00333029  1
  Cl  Cl36  1  0.49958829  0.22185979  0.99393965  1
  Cl  Cl37  1  0.24498446  0.98825893  0.18780317  1
  Cl  Cl38  1  0.68804333  0.01352793  0.25415709  1
  Cl  Cl39  1  0.99954018  0.27815275  0.50609302  1
  Cl  Cl40  1  0.30988437  0.01085086  0.74306954  1
  Cl  Cl41  1  0.75529071  0.98756293  0.80903714  1
  Cl  Cl42  1  0.50184171  0.77821774  0.00400172  1
  Cl  Cl43  1  0.74497242  0.51173987  0.31221003  1
  Cl  Cl44  1  0.18802836  0.48645772  0.24583779  1
  Cl  Cl45  1  0.00188220  0.72178440  0.49595810  1
  Cl  Cl46  1  0.25528638  0.51244488  0.69097100  1
  Cl  Cl47  1  0.80986684  0.48916672  0.75693043  1
