# generated using pymatgen
data_ScH10AuC2(N2Cl3)2
_symmetry_space_group_name_H-M   'P 1'
_cell_length_a   8.09138373
_cell_length_b   9.75054054
_cell_length_c   8.07711594
_cell_angle_alpha   89.63740530
_cell_angle_beta   90.00151300
_cell_angle_gamma   90.00143456
_symmetry_Int_Tables_number   1
_chemical_formula_structural   ScH10AuC2(N2Cl3)2
_chemical_formula_sum   'Sc2 H20 Au2 C4 N8 Cl12'
_cell_volume   637.23424928
_cell_formula_units_Z   2
loop_
 _symmetry_equiv_pos_site_id
 _symmetry_equiv_pos_as_xyz
  1  'x, y, z'
loop_
 _atom_site_type_symbol
 _atom_site_label
 _atom_site_symmetry_multiplicity
 _atom_site_fract_x
 _atom_site_fract_y
 _atom_site_fract_z
 _atom_site_occupancy
  C  C0  1  0.49638603  0.29529398  0.49597654  1
  C  C1  1  0.99640435  0.20471009  0.00404258  1
  C  C2  1  0.50376064  0.79523409  0.50301757  1
  C  C3  1  0.00374117  0.70476905  0.99696288  1
  N  N4  1  0.60431273  0.23583516  0.59346473  1
  N  N5  1  0.39232944  0.23472134  0.39630769  1
  N  N6  1  0.10435938  0.26418400  0.90656265  1
  N  N7  1  0.89236943  0.26527405  0.10370367  1
  N  N8  1  0.60140512  0.73456549  0.60986951  1
  N  N9  1  0.40282645  0.73584193  0.39914821  1
  N  N10  1  0.10135807  0.76544871  0.89013392  1
  N  N11  1  0.90277658  0.76413893  0.10083820  1
  H  H12  1  0.49244208  0.40667092  0.49827701  1
  H  H13  1  0.67953464  0.29630364  0.66421318  1
  H  H14  1  0.61620126  0.13237158  0.60776521  1
  H  H15  1  0.31335675  0.29492678  0.32839108  1
  H  H16  1  0.38645104  0.13145926  0.37797830  1
  H  H17  1  0.99245226  0.09333525  0.00170270  1
  H  H18  1  0.17956906  0.20371178  0.83581044  1
  H  H19  1  0.11626621  0.36763824  0.89229858  1
  H  H20  1  0.81337893  0.20507072  0.17160180  1
  H  H21  1  0.88650494  0.36853956  0.12205471  1
  H  H22  1  0.50724750  0.90663580  0.50004126  1
  H  H23  1  0.67240452  0.79473838  0.68521816  1
  H  H24  1  0.61502044  0.63100461  0.62152357  1
  H  H25  1  0.33459233  0.79643626  0.32079350  1
  H  H26  1  0.38351853  0.63267828  0.39340322  1
  H  H27  1  0.00724150  0.59336649  -0.00004561  1
  H  H28  1  0.17238644  0.70528991  0.81478575  1
  H  H29  1  0.11496396  0.86901323  0.87847114  1
  H  H30  1  0.83456395  0.70354176  0.17917823  1
  H  H31  1  0.88345682  0.86730437  0.10656994  1
  Sc  Sc32  1  0.49898520  0.00002808  0.99802792  1
  Sc  Sc33  1  0.99898852  0.49997254  0.50198190  1
  Au  Au34  1  0.00004772  0.99998345  0.49896403  1
  Au  Au35  1  0.50005368  0.50001809  0.00103860  1
  Cl  Cl36  1  0.49986251  0.26164451  0.99693348  1
  Cl  Cl37  1  0.25473455  0.98495996  0.17800857  1
  Cl  Cl38  1  0.67933893  0.01234916  0.24299827  1
  Cl  Cl39  1  0.99981373  0.23835745  0.50309487  1
  Cl  Cl40  1  0.32018600  0.01552422  0.75275590  1
  Cl  Cl41  1  0.74435223  0.98746499  0.81837348  1
  Cl  Cl42  1  0.50069794  0.73842586  0.00241366  1
  Cl  Cl43  1  0.75472810  0.51501490  0.32199422  1
  Cl  Cl44  1  0.17933046  0.48766153  0.25700957  1
  Cl  Cl45  1  0.00076012  0.76157535  0.49756991  1
  Cl  Cl46  1  0.24436162  0.51257044  0.68163111  1
  Cl  Cl47  1  0.82019552  0.48445884  0.74724892  1
