# generated using pymatgen
data_ScInH10C2(N2Cl3)2
_symmetry_space_group_name_H-M   'P 1'
_cell_length_a   7.92544833
_cell_length_b   10.95094849
_cell_length_c   7.90927329
_cell_angle_alpha   89.75446252
_cell_angle_beta   90.00008811
_cell_angle_gamma   90.00186269
_symmetry_Int_Tables_number   1
_chemical_formula_structural   ScInH10C2(N2Cl3)2
_chemical_formula_sum   'Sc2 In2 H20 C4 N8 Cl12'
_cell_volume   686.44883042
_cell_formula_units_Z   2
loop_
 _symmetry_equiv_pos_site_id
 _symmetry_equiv_pos_as_xyz
  1  'x, y, z'
loop_
 _atom_site_type_symbol
 _atom_site_label
 _atom_site_symmetry_multiplicity
 _atom_site_fract_x
 _atom_site_fract_y
 _atom_site_fract_z
 _atom_site_occupancy
  C  C0  1  0.49431755  0.29234957  0.49606177  1
  C  C1  1  0.99436943  0.20764887  0.00394157  1
  C  C2  1  0.50571072  0.79237034  0.50330171  1
  C  C3  1  0.00565144  0.70763279  0.99669171  1
  N  N4  1  0.60238348  0.23800673  0.59679185  1
  N  N5  1  0.39070769  0.23825671  0.39123384  1
  N  N6  1  0.10245843  0.26199224  0.90324833  1
  N  N7  1  0.89074770  0.26174171  0.10876811  1
  N  N8  1  0.60743631  0.73813021  0.61044427  1
  N  N9  1  0.40024483  0.73813228  0.40034946  1
  N  N10  1  0.10738765  0.76188348  0.88956595  1
  N  N11  1  0.90015809  0.76186039  0.09962011  1
  H  H12  1  0.48993288  0.39169956  0.50013236  1
  H  H13  1  0.67891143  0.29043861  0.67072838  1
  H  H14  1  0.61150023  0.14553605  0.60995859  1
  H  H15  1  0.30985625  0.29133801  0.32217452  1
  H  H16  1  0.38795875  0.14624666  0.37116498  1
  H  H17  1  0.98995490  0.10830028  0.99985568  1
  H  H18  1  0.17898595  0.20955935  0.82932661  1
  H  H19  1  0.11160900  0.35445177  0.89011248  1
  H  H20  1  0.80986476  0.20865200  0.17781063  1
  H  H21  1  0.88801063  0.35374887  0.12885936  1
  H  H22  1  0.50938468  0.89175621  0.49914756  1
  H  H23  1  0.68068015  0.79120989  0.68694467  1
  H  H24  1  0.62151667  0.64569944  0.61995462  1
  H  H25  1  0.32979105  0.79065624  0.32006793  1
  H  H26  1  0.38035462  0.64610815  0.39882110  1
  H  H27  1  0.00934169  0.60824842  0.00084422  1
  H  H28  1  0.18066231  0.70881122  0.81307759  1
  H  H29  1  0.12146239  0.85431769  0.88006034  1
  H  H30  1  0.82970309  0.70933106  0.17988484  1
  H  H31  1  0.88025189  0.85387708  0.10114283  1
  Sc  Sc32  1  0.49919425  0.00000975  0.99815202  1
  Sc  Sc33  1  0.99919304  0.50000081  0.50185543  1
  In  In34  1  0.00074003  0.00005589  0.49671404  1
  In  In35  1  0.50074063  0.49995746  0.00328943  1
  Cl  Cl36  1  0.49945639  0.22155388  0.99430286  1
  Cl  Cl37  1  0.24614364  0.98783265  0.18730525  1
  Cl  Cl38  1  0.68711715  0.01395031  0.25316717  1
  Cl  Cl39  1  0.99941291  0.27845766  0.50572945  1
  Cl  Cl40  1  0.31075554  0.01122561  0.74445622  1
  Cl  Cl41  1  0.75412642  0.98716663  0.81035679  1
  Cl  Cl42  1  0.50184852  0.77850501  0.00407668  1
  Cl  Cl43  1  0.74612750  0.51216990  0.31271020  1
  Cl  Cl44  1  0.18710254  0.48604108  0.24682652  1
  Cl  Cl45  1  0.00189603  0.72150400  0.49588234  1
  Cl  Cl46  1  0.25412192  0.51284660  0.68965049  1
  Cl  Cl47  1  0.81073619  0.48879386  0.75554190  1
