# generated using pymatgen
data_ScAgH10C2(N2Cl3)2
_symmetry_space_group_name_H-M   'P 1'
_cell_length_a   7.92337668
_cell_length_b   9.96634511
_cell_length_c   7.91530172
_cell_angle_alpha   89.69585391
_cell_angle_beta   89.99978326
_cell_angle_gamma   90.00097823
_symmetry_Int_Tables_number   1
_chemical_formula_structural   ScAgH10C2(N2Cl3)2
_chemical_formula_sum   'Sc2 Ag2 H20 C4 N8 Cl12'
_cell_volume   625.03966719
_cell_formula_units_Z   2
loop_
 _symmetry_equiv_pos_site_id
 _symmetry_equiv_pos_as_xyz
  1  'x, y, z'
loop_
 _atom_site_type_symbol
 _atom_site_label
 _atom_site_symmetry_multiplicity
 _atom_site_fract_x
 _atom_site_fract_y
 _atom_site_fract_z
 _atom_site_occupancy
  C  C0  1  0.49622992  0.29520921  0.49650871  1
  C  C1  1  0.99626187  0.20479482  0.00349444  1
  C  C2  1  0.50338939  0.79520500  0.50239994  1
  C  C3  1  0.00335447  0.70479686  0.99760904  1
  N  N4  1  0.60540662  0.23688661  0.59663817  1
  N  N5  1  0.39093931  0.23478929  0.39504221  1
  N  N6  1  0.10544973  0.26312227  0.90337789  1
  N  N7  1  0.89097112  0.26520470  0.10496328  1
  N  N8  1  0.60323328  0.73502373  0.61022795  1
  N  N9  1  0.40068563  0.73659830  0.39659703  1
  N  N10  1  0.10320081  0.76498624  0.88977012  1
  N  N11  1  0.90063787  0.76339466  0.10338964  1
  H  H12  1  0.49234074  0.40418866  0.49786438  1
  H  H13  1  0.68256137  0.29575422  0.66859135  1
  H  H14  1  0.61603806  0.13559613  0.61152543  1
  H  H15  1  0.31022595  0.29258825  0.32489703  1
  H  H16  1  0.38619083  0.13356230  0.37786126  1
  H  H17  1  0.99236568  0.09581356  0.00212233  1
  H  H18  1  0.18260262  0.20425938  0.83142089  1
  H  H19  1  0.11609210  0.36441484  0.88850611  1
  H  H20  1  0.81024930  0.20740351  0.17509753  1
  H  H21  1  0.88623103  0.36643200  0.12215785  1
  H  H22  1  0.50625144  0.90420242  0.50040970  1
  H  H23  1  0.67571468  0.79301874  0.68790421  1
  H  H24  1  0.61711942  0.63358644  0.61975939  1
  H  H25  1  0.33064598  0.79531852  0.31675282  1
  H  H26  1  0.38241114  0.63550287  0.39093891  1
  H  H27  1  0.00624388  0.59580056  0.99961155  1
  H  H28  1  0.17569703  0.70699759  0.81211101  1
  H  H29  1  0.11706393  0.86642424  0.88023320  1
  H  H30  1  0.83060457  0.70467099  0.18324171  1
  H  H31  1  0.88233905  0.86449047  0.10903645  1
  Sc  Sc32  1  0.49959945  0.99999432  0.99800676  1
  Sc  Sc33  1  0.99960706  0.50000962  0.50200178  1
  Ag  Ag34  1  0.00140958  0.00003115  0.49787815  1
  Ag  Ag35  1  0.50142983  0.49997272  0.00213213  1
  Cl  Cl36  1  0.49953910  0.25041523  0.99719650  1
  Cl  Cl37  1  0.24840527  0.98656628  0.18829799  1
  Cl  Cl38  1  0.69030548  0.01151931  0.24921154  1
  Cl  Cl39  1  0.99951732  0.24958856  0.50282358  1
  Cl  Cl40  1  0.30986993  0.01369109  0.74645904  1
  Cl  Cl41  1  0.75090789  0.98833217  0.80758349  1
  Cl  Cl42  1  0.50057678  0.74958909  0.00137233  1
  Cl  Cl43  1  0.74840673  0.51342347  0.31171029  1
  Cl  Cl44  1  0.19030890  0.48848256  0.25079113  1
  Cl  Cl45  1  0.00060658  0.75041438  0.49860821  1
  Cl  Cl46  1  0.25090969  0.51168387  0.69242314  1
  Cl  Cl47  1  0.80987095  0.48631177  0.75354713  1
