# generated using pymatgen
data_ScGaH10C2(N2Cl3)2
_symmetry_space_group_name_H-M   'P 1'
_cell_length_a   7.84951742
_cell_length_b   10.79346329
_cell_length_c   7.83285147
_cell_angle_alpha   89.70458601
_cell_angle_beta   90.00179708
_cell_angle_gamma   90.00104674
_symmetry_Int_Tables_number   1
_chemical_formula_structural   ScGaH10C2(N2Cl3)2
_chemical_formula_sum   'Sc2 Ga2 H20 C4 N8 Cl12'
_cell_volume   663.61759940
_cell_formula_units_Z   2
loop_
 _symmetry_equiv_pos_site_id
 _symmetry_equiv_pos_as_xyz
  1  'x, y, z'
loop_
 _atom_site_type_symbol
 _atom_site_label
 _atom_site_symmetry_multiplicity
 _atom_site_fract_x
 _atom_site_fract_y
 _atom_site_fract_z
 _atom_site_occupancy
  C  C0  1  0.49461219  0.29261908  0.49609874  1
  C  C1  1  0.99464905  0.20738507  0.00391640  1
  C  C2  1  0.50536587  0.79263677  0.50322369  1
  C  C3  1  0.00530858  0.70736230  0.99677201  1
  N  N4  1  0.60367560  0.23752887  0.59770123  1
  N  N5  1  0.38998840  0.23768676  0.39060760  1
  N  N6  1  0.10374019  0.26247258  0.90234486  1
  N  N7  1  0.89002579  0.26231076  0.10939612  1
  N  N8  1  0.60793387  0.73755893  0.61129997  1
  N  N9  1  0.39918915  0.73766768  0.39920637  1
  N  N10  1  0.10788854  0.76245486  0.88870550  1
  N  N11  1  0.89911517  0.76232247  0.10075782  1
  H  H12  1  0.49025114  0.39337617  0.49992399  1
  H  H13  1  0.68059991  0.29093524  0.67231209  1
  H  H14  1  0.61357964  0.14373597  0.61084162  1
  H  H15  1  0.30874304  0.29168006  0.32060427  1
  H  H16  1  0.38632243  0.14428542  0.37109891  1
  H  H17  1  0.99026529  0.10662713  1.00006841  1
  H  H18  1  0.18066955  0.20906650  0.82773688  1
  H  H19  1  0.11368029  0.35626606  0.88922579  1
  H  H20  1  0.80875570  0.20831971  0.17937847  1
  H  H21  1  0.88637232  0.35571065  0.12892658  1
  H  H22  1  0.50895576  0.89343537  0.49920351  1
  H  H23  1  0.68194415  0.79152195  0.68821647  1
  H  H24  1  0.62183923  0.64377496  0.62156515  1
  H  H25  1  0.32792318  0.79118929  0.31850976  1
  H  H26  1  0.37981322  0.64425280  0.39659520  1
  H  H27  1  0.00892006  0.60656610  0.00078820  1
  H  H28  1  0.18192013  0.70850040  0.81180911  1
  H  H29  1  0.12178070  0.85623713  0.87845026  1
  H  H30  1  0.82784596  0.70879268  0.18144269  1
  H  H31  1  0.87971796  0.85573208  0.10336584  1
  Sc  Sc32  1  0.49915054  0.00001815  0.99804873  1
  Sc  Sc33  1  0.99915105  0.49998976  0.50195744  1
  Ga  Ga34  1  0.00101095  0.00005395  0.49696083  1
  Ga  Ga35  1  0.50101396  0.49995680  0.00303864  1
  Cl  Cl36  1  0.49950590  0.22501554  0.99508951  1
  Cl  Cl37  1  0.24489802  0.98810308  0.19256059  1
  Cl  Cl38  1  0.69306701  0.01233153  0.25377960  1
  Cl  Cl39  1  0.99947619  0.27499618  0.50494966  1
  Cl  Cl40  1  0.30532674  0.01130428  0.74313211  1
  Cl  Cl41  1  0.75482738  0.98846812  0.80421567  1
  Cl  Cl42  1  0.50153991  0.77506119  0.00334055  1
  Cl  Cl43  1  0.74488517  0.51189454  0.30744649  1
  Cl  Cl44  1  0.19305315  0.48765794  0.24621732  1
  Cl  Cl45  1  0.00158062  0.72494395  0.49661622  1
  Cl  Cl46  1  0.25482588  0.51154203  0.69579706  1
  Cl  Cl47  1  0.80531480  0.48871412  0.75686082  1
