# generated using pymatgen
data_ScZnH10C2(N2Cl3)2
_symmetry_space_group_name_H-M   'P 1'
_cell_length_a   7.43227962
_cell_length_b   10.73297556
_cell_length_c   8.31141914
_cell_angle_alpha   91.29829241
_cell_angle_beta   90.49287943
_cell_angle_gamma   90.02762540
_symmetry_Int_Tables_number   1
_chemical_formula_structural   ScZnH10C2(N2Cl3)2
_chemical_formula_sum   'Sc2 Zn2 H20 C4 N8 Cl12'
_cell_volume   662.81097653
_cell_formula_units_Z   2
loop_
 _symmetry_equiv_pos_site_id
 _symmetry_equiv_pos_as_xyz
  1  'x, y, z'
loop_
 _atom_site_type_symbol
 _atom_site_label
 _atom_site_symmetry_multiplicity
 _atom_site_fract_x
 _atom_site_fract_y
 _atom_site_fract_z
 _atom_site_occupancy
  C  C0  1  0.47637248  0.27926896  0.49754219  1
  C  C1  1  0.99119621  0.19513887  -0.00038187  1
  C  C2  1  0.51797140  0.80053320  0.50275247  1
  C  C3  1  0.04066291  0.71769196  0.00136167  1
  N  N4  1  0.56198189  0.24163866  0.62580298  1
  N  N5  1  0.40199245  0.20666263  0.38658323  1
  N  N6  1  0.07196506  0.23557423  0.87155503  1
  N  N7  1  0.93508451  0.26442254  0.12107022  1
  N  N8  1  0.55781328  0.72931167  0.62405074  1
  N  N9  1  0.41646910  0.76809416  0.37920886  1
  N  N10  1  0.05859791  0.77480339  0.86655694  1
  N  N11  1  0.92053356  0.74844604  0.11443578  1
  H  H12  1  0.46396566  0.37932000  0.48142914  1
  H  H13  1  0.61385681  0.30546842  0.70633978  1
  H  H14  1  0.58356284  0.14980384  0.64928566  1
  H  H15  1  0.34881280  0.24510393  0.28581120  1
  H  H16  1  0.40840690  0.11187208  0.38668384  1
  H  H17  1  0.96787262  0.09538794  0.00666549  1
  H  H18  1  0.12080046  0.17147462  0.79008717  1
  H  H19  1  0.09990951  0.32722271  0.85355045  1
  H  H20  1  0.86893725  0.22361975  0.21290097  1
  H  H21  1  0.94781003  0.35879319  0.12582220  1
  H  H22  1  0.57701305  0.89355908  0.50425909  1
  H  H23  1  0.63188603  0.76747944  0.71631825  1
  H  H24  1  0.49963301  0.64423780  0.64038372  1
  H  H25  1  0.38649399  0.83206837  0.29310983  1
  H  H26  1  0.36083569  0.68135722  0.36502093  1
  H  H27  1  0.12460963  0.63614593  0.02233760  1
  H  H28  1  0.14599152  0.74018418  0.78293055  1
  H  H29  1  -0.01457900  0.85301847  0.83844902  1
  H  H30  1  0.94591948  0.71948218  0.23008731  1
  H  H31  1  0.85438744  0.83330032  0.11267622  1
  Sc  Sc32  1  0.49448637  0.02331901  0.98464692  1
  Sc  Sc33  1  0.03525917  0.50493510  0.48568444  1
  Zn  Zn34  1  0.01294008  0.01490261  0.47468149  1
  Zn  Zn35  1  0.68075562  0.58690187  0.05048425  1
  Cl  Cl36  1  0.49213021  0.24315926  0.00433547  1
  Cl  Cl37  1  0.23994485  0.97877036  0.15296778  1
  Cl  Cl38  1  0.69778164  0.99584509  0.21502685  1
  Cl  Cl39  1  0.95291659  0.29755409  0.51460393  1
  Cl  Cl40  1  0.31039809  -0.00200710  0.74158053  1
  Cl  Cl41  1  0.75076404  0.97717297  0.80249604  1
  Cl  Cl42  1  0.47917050  0.73159590  -0.00054013  1
  Cl  Cl43  1  0.72202327  0.50188942  0.29278843  1
  Cl  Cl44  1  0.22550702  0.49417152  0.25692056  1
  Cl  Cl45  1  0.97315036  0.72150102  0.49762076  1
  Cl  Cl46  1  0.25718264  0.51071371  0.69891474  1
  Cl  Cl47  1  0.78884240  0.48915240  0.83320606  1
