# generated using pymatgen
data_CuSbH12C2(I3N)2
_symmetry_space_group_name_H-M   'P 1'
_cell_length_a   8.95412450
_cell_length_b   10.62208401
_cell_length_c   8.74039866
_cell_angle_alpha   89.73408808
_cell_angle_beta   89.99604817
_cell_angle_gamma   89.99160486
_symmetry_Int_Tables_number   1
_chemical_formula_structural   CuSbH12C2(I3N)2
_chemical_formula_sum   'Cu2 Sb2 H24 C4 I12 N4'
_cell_volume   831.30313769
_cell_formula_units_Z   2
loop_
 _symmetry_equiv_pos_site_id
 _symmetry_equiv_pos_as_xyz
  1  'x, y, z'
loop_
 _atom_site_type_symbol
 _atom_site_label
 _atom_site_symmetry_multiplicity
 _atom_site_fract_x
 _atom_site_fract_y
 _atom_site_fract_z
 _atom_site_occupancy
  C  C0  1  0.45563634  0.25140401  0.44143621  1
  C  C1  1  0.95560709  0.24841476  0.05831095  1
  C  C2  1  0.53658892  0.74686877  0.56160766  1
  C  C3  1  0.03680184  0.75334079  0.93861024  1
  N  N4  1  0.55972272  0.24875731  0.57410236  1
  N  N5  1  0.05966359  0.25123128  0.92561086  1
  N  N6  1  0.42711747  0.74910545  0.43350080  1
  N  N7  1  0.92740318  0.75088037  0.06679008  1
  H  H8  1  0.52103851  0.25086824  0.33582273  1
  H  H9  1  0.38402224  0.16809812  0.44717359  1
  H  H10  1  0.38766789  0.33684438  0.44797564  1
  H  H11  1  0.62639783  0.16870461  0.57381818  1
  H  H12  1  0.63139984  0.32534194  0.57367312  1
  H  H13  1  0.50363695  0.24941238  0.67852671  1
  H  H14  1  0.02103210  0.24885970  0.16390096  1
  H  H15  1  0.88769080  0.16296365  0.05165254  1
  H  H16  1  0.88393857  0.33170489  0.05272509  1
  H  H17  1  0.13133005  0.17463219  0.92580104  1
  H  H18  1  0.12634196  0.33127123  0.92603918  1
  H  H19  1  0.00354906  0.25075203  0.82119821  1
  H  H20  1  0.47506280  0.74579739  0.66968572  1
  H  H21  1  0.60560662  0.66235286  0.55174287  1
  H  H22  1  0.60659890  0.83104339  0.55409057  1
  H  H23  1  0.35932529  0.82819697  0.43886662  1
  H  H24  1  0.35706760  0.67122106  0.43678360  1
  H  H25  1  0.47834128  0.75046597  0.32656013  1
  H  H26  1  0.97521843  0.75450302  0.83057533  1
  H  H27  1  0.10572296  0.83788681  0.94858603  1
  H  H28  1  0.10691726  0.66920440  0.94593599  1
  H  H29  1  0.85728334  0.82873615  0.06374330  1
  H  H30  1  0.85968091  0.67176204  0.06130283  1
  H  H31  1  0.97868823  0.74940100  0.17369122  1
  Cu  Cu32  1  0.63000655  0.00504286  0.02538108  1
  Cu  Cu33  1  0.13003993  0.49498132  0.47459082  1
  Sb  Sb34  1  0.01393787  0.99924277  0.49451893  1
  Sb  Sb35  1  0.51391960  0.50078953  0.00557404  1
  I  I36  1  0.47754928  0.21488184  0.98722272  1
  I  I37  1  0.19692406  0.99750154  0.22351842  1
  I  I38  1  0.71365935  0.00119193  0.30662587  1
  I  I39  1  0.97751630  0.28516554  0.51271711  1
  I  I40  1  0.27326704  0.99587147  0.69580777  1
  I  I41  1  0.79236620  0.00380091  0.77943223  1
  I  I42  1  0.48638495  0.78518374  0.01325875  1
  I  I43  1  0.69664355  0.50241844  0.27669500  1
  I  I44  1  0.21347251  0.49865185  0.19323231  1
  I  I45  1  0.98636025  0.71481135  0.48687909  1
  I  I46  1  0.29247013  0.49617276  0.72046309  1
  I  I47  1  0.77340560  0.50434327  0.80453901  1
