# generated using pymatgen
data_ScCuH10C2(N2Cl3)2
_symmetry_space_group_name_H-M   'P 1'
_cell_length_a   8.07003633
_cell_length_b   9.46835810
_cell_length_c   8.05664085
_cell_angle_alpha   89.75175502
_cell_angle_beta   90.00164759
_cell_angle_gamma   90.00125183
_symmetry_Int_Tables_number   1
_chemical_formula_structural   ScCuH10C2(N2Cl3)2
_chemical_formula_sum   'Sc2 Cu2 H20 C4 N8 Cl12'
_cell_volume   615.60209974
_cell_formula_units_Z   2
loop_
 _symmetry_equiv_pos_site_id
 _symmetry_equiv_pos_as_xyz
  1  'x, y, z'
loop_
 _atom_site_type_symbol
 _atom_site_label
 _atom_site_symmetry_multiplicity
 _atom_site_fract_x
 _atom_site_fract_y
 _atom_site_fract_z
 _atom_site_occupancy
  C  C0  1  0.49642281  0.29600216  0.49637185  1
  C  C1  1  0.99644397  0.20398366  0.00365065  1
  C  C2  1  0.50366972  0.79594095  0.50267462  1
  C  C3  1  0.00364603  0.70405823  0.99732348  1
  N  N4  1  0.60448997  0.23485838  0.59379923  1
  N  N5  1  0.39220990  0.23360917  0.39649380  1
  N  N6  1  0.10454969  0.26515158  0.90622864  1
  N  N7  1  0.89225523  0.26637218  0.10351072  1
  N  N8  1  0.60108420  0.73334832  0.60959514  1
  N  N9  1  0.40242541  0.73496964  0.39852793  1
  N  N10  1  0.10107117  0.76667374  0.89039189  1
  N  N11  1  0.90240614  0.76501604  0.10143932  1
  H  H12  1  0.49238048  0.41057957  0.49895892  1
  H  H13  1  0.67923500  0.29666735  0.66621533  1
  H  H14  1  0.61711741  0.12842567  0.60703459  1
  H  H15  1  0.31364641  0.29514507  0.32724598  1
  H  H16  1  0.38601156  0.12733081  0.37854906  1
  H  H17  1  0.99239629  0.08943459  0.00102545  1
  H  H18  1  0.17927784  0.20335073  0.83381575  1
  H  H19  1  0.11719123  0.37158686  0.89303918  1
  H  H20  1  0.81367141  0.20484441  0.17274943  1
  H  H21  1  0.88607010  0.37267467  0.12149027  1
  H  H22  1  0.50762487  0.91050161  0.49975647  1
  H  H23  1  0.67385417  0.79469929  0.68452681  1
  H  H24  1  0.61361475  0.62677221  0.62166979  1
  H  H25  1  0.33299005  0.79701141  0.32064002  1
  H  H26  1  0.38349068  0.62879600  0.39211234  1
  H  H27  1  0.00762690  0.58950478  0.00023827  1
  H  H28  1  0.17385282  0.70532289  0.81547824  1
  H  H29  1  0.11358171  0.87323946  0.87832328  1
  H  H30  1  0.83296922  0.70297386  0.17932837  1
  H  H31  1  0.88344539  0.87119727  0.10785233  1
  Sc  Sc32  1  0.49896238  0.00000538  0.99754868  1
  Sc  Sc33  1  0.99895483  0.49999766  0.50246577  1
  Cu  Cu34  1  0.00366641  0.00001921  0.50104637  1
  Cu  Cu35  1  0.50374515  0.49998441  0.99896280  1
  Cl  Cl36  1  0.49921286  0.27227793  0.99727656  1
  Cl  Cl37  1  0.25241702  0.98519176  0.17819170  1
  Cl  Cl38  1  0.67959225  0.01205910  0.24453614  1
  Cl  Cl39  1  0.99917128  0.22772548  0.50275505  1
  Cl  Cl40  1  0.31912206  0.01508323  0.74994712  1
  Cl  Cl41  1  0.74640506  0.98788909  0.81730249  1
  Cl  Cl42  1  0.50027975  0.72769145  0.00162187  1
  Cl  Cl43  1  0.75240988  0.51479467  0.32179821  1
  Cl  Cl44  1  0.17956022  0.48794682  0.25547159  1
  Cl  Cl45  1  0.00028137  0.77231166  0.49835907  1
  Cl  Cl46  1  0.24640728  0.51212872  0.68270589  1
  Cl  Cl47  1  0.81910897  0.48491384  0.75005830  1
