# generated using pymatgen
data_TiHgH10C2(N2Cl3)2
_symmetry_space_group_name_H-M   'P 1'
_cell_length_a   7.87655463
_cell_length_b   10.97763855
_cell_length_c   7.85756158
_cell_angle_alpha   89.59677108
_cell_angle_beta   90.00247210
_cell_angle_gamma   90.00112939
_symmetry_Int_Tables_number   1
_chemical_formula_structural   TiHgH10C2(N2Cl3)2
_chemical_formula_sum   'Ti2 Hg2 H20 C4 N8 Cl12'
_cell_volume   679.39485590
_cell_formula_units_Z   2
loop_
 _symmetry_equiv_pos_site_id
 _symmetry_equiv_pos_as_xyz
  1  'x, y, z'
loop_
 _atom_site_type_symbol
 _atom_site_label
 _atom_site_symmetry_multiplicity
 _atom_site_fract_x
 _atom_site_fract_y
 _atom_site_fract_z
 _atom_site_occupancy
  C  C0  1  0.49454295  0.29212609  0.49584435  1
  C  C1  1  0.99460688  0.20786796  0.00414386  1
  C  C2  1  0.50564305  0.79218413  0.50323103  1
  C  C3  1  0.00557991  0.70782144  0.99676739  1
  N  N4  1  0.60385521  0.23805781  0.59712969  1
  N  N5  1  0.38976950  0.23834049  0.39079502  1
  N  N6  1  0.10391898  0.26193860  0.90292091  1
  N  N7  1  0.88981161  0.26165637  0.10920240  1
  N  N8  1  0.60783555  0.73816592  0.61162929  1
  N  N9  1  0.39976427  0.73828653  0.39921072  1
  N  N10  1  0.10777551  0.76184893  0.88838869  1
  N  N11  1  0.89967976  0.76170022  0.10076121  1
  H  H12  1  0.49007739  0.39128626  0.49962844  1
  H  H13  1  0.67951025  0.29075434  0.67205549  1
  H  H14  1  0.61601731  0.14582390  0.60892941  1
  H  H15  1  0.30959844  0.29175046  0.32044753  1
  H  H16  1  0.38428062  0.14636344  0.37278556  1
  H  H17  1  0.99010221  0.10871624  0.00035039  1
  H  H18  1  0.17958832  0.20924666  0.82798858  1
  H  H19  1  0.11612650  0.35418390  0.89114231  1
  H  H20  1  0.80963157  0.20823900  0.17952022  1
  H  H21  1  0.88434824  0.35362470  0.12722797  1
  H  H22  1  0.50933261  0.89137123  0.49886324  1
  H  H23  1  0.68215077  0.79145089  0.68727531  1
  H  H24  1  0.61998178  0.64592321  0.62442125  1
  H  H25  1  0.32811332  0.79121264  0.31964406  1
  H  H26  1  0.38164285  0.64630059  0.39485504  1
  H  H27  1  0.00928845  0.60863053  0.00113552  1
  H  H28  1  0.18211424  0.70857315  0.81276057  1
  H  H29  1  0.11990783  0.85409254  0.87559968  1
  H  H30  1  0.82802285  0.70876933  0.18030963  1
  H  H31  1  0.88153541  0.85369061  0.10510520  1
  Ti  Ti32  1  0.49864876  0.00003137  0.99825977  1
  Ti  Ti33  1  0.99865015  0.49997684  0.50174961  1
  Hg  Hg34  1  0.99916099  0.00001259  0.49760838  1
  Hg  Hg35  1  0.49915964  0.49999524  0.00240663  1
  Cl  Cl36  1  0.50002373  0.20966885  0.99450201  1
  Cl  Cl37  1  0.25456303  0.98916002  0.17572722  1
  Cl  Cl38  1  0.67609989  0.01221466  0.24419586  1
  Cl  Cl39  1  -0.00000217  0.29034005  0.50553206  1
  Cl  Cl40  1  0.32247376  0.00985183  0.75296275  1
  Cl  Cl41  1  0.74481938  0.98904885  0.82133581  1
  Cl  Cl42  1  0.50215432  0.79043479  0.00377290  1
  Cl  Cl43  1  0.75454855  0.51084131  0.32427650  1
  Cl  Cl44  1  0.17608586  0.48777588  0.25580824  1
  Cl  Cl45  1  0.00220100  0.70957263  0.49618110  1
  Cl  Cl46  1  0.24481427  0.51096373  0.67869062  1
  Cl  Cl47  1  0.82246404  0.49017623  0.74702536  1
