# generated using pymatgen
data_TiH10PtC2(N2Cl3)2
_symmetry_space_group_name_H-M   'P 1'
_cell_length_a   8.14700231
_cell_length_b   9.24206529
_cell_length_c   8.13359669
_cell_angle_alpha   89.60722085
_cell_angle_beta   90.00264735
_cell_angle_gamma   89.99899395
_symmetry_Int_Tables_number   1
_chemical_formula_structural   TiH10PtC2(N2Cl3)2
_chemical_formula_sum   'Ti2 H20 Pt2 C4 N8 Cl12'
_cell_volume   612.40580678
_cell_formula_units_Z   2
loop_
 _symmetry_equiv_pos_site_id
 _symmetry_equiv_pos_as_xyz
  1  'x, y, z'
loop_
 _atom_site_type_symbol
 _atom_site_label
 _atom_site_symmetry_multiplicity
 _atom_site_fract_x
 _atom_site_fract_y
 _atom_site_fract_z
 _atom_site_occupancy
  C  C0  1  0.49694763  0.29635942  0.49578029  1
  C  C1  1  0.99698269  0.20363828  0.00422168  1
  C  C2  1  0.50356227  0.79635919  0.50290229  1
  C  C3  1  0.00353778  0.70364851  0.99708089  1
  N  N4  1  0.60567523  0.23460147  0.59148393  1
  N  N5  1  0.39224372  0.23264699  0.39830562  1
  N  N6  1  0.10571113  0.26541809  0.90853623  1
  N  N7  1  0.89228534  0.26734950  0.10171404  1
  N  N8  1  0.59882572  0.73257750  0.61056537  1
  N  N9  1  0.40420292  0.73461686  0.39830787  1
  N  N10  1  0.09877673  0.76743332  0.88944178  1
  N  N11  1  0.90414982  0.76536735  0.10167373  1
  H  H12  1  0.49271606  0.41368576  0.49776634  1
  H  H13  1  0.68002978  0.29873331  0.66188842  1
  H  H14  1  0.62103082  0.12578376  0.60428925  1
  H  H15  1  0.31398514  0.29606744  0.33032869  1
  H  H16  1  0.38419761  0.12382100  0.38134241  1
  H  H17  1  0.99273404  0.08632260  0.00221156  1
  H  H18  1  0.18007598  0.20129331  0.83813849  1
  H  H19  1  0.12109518  0.37422791  0.89578205  1
  H  H20  1  0.81400627  0.20393446  0.16965677  1
  H  H21  1  0.88425495  0.37617369  0.11868532  1
  H  H22  1  0.50796065  0.91366581  0.49963752  1
  H  H23  1  0.67007183  0.79601779  0.68492446  1
  H  H24  1  0.60955114  0.62356478  0.62595747  1
  H  H25  1  0.33639747  0.79899911  0.32079204  1
  H  H26  1  0.38508611  0.62602408  0.39039665  1
  H  H27  1  0.00794477  0.58633455  0.00037393  1
  H  H28  1  0.17002310  0.70401111  0.81507013  1
  H  H29  1  0.10946821  0.87645291  0.87402654  1
  H  H30  1  0.83637593  0.70097762  0.17920218  1
  H  H31  1  0.88501862  0.87396446  0.10957932  1
  Ti  Ti32  1  0.49888006  0.99837870  0.99766424  1
  Ti  Ti33  1  0.99888082  0.50149284  0.50234476  1
  Pt  Pt34  1  0.99929534  0.99932561  0.50164634  1
  Pt  Pt35  1  0.49928885  0.50072454  0.99835467  1
  Cl  Cl36  1  0.49989368  0.25719966  0.99849681  1
  Cl  Cl37  1  0.26029782  0.98610226  0.16757704  1
  Cl  Cl38  1  0.66948596  0.01042808  0.23669224  1
  Cl  Cl39  1  0.99988191  0.24281822  0.50153622  1
  Cl  Cl40  1  0.33116544  0.01469380  0.75815196  1
  Cl  Cl41  1  0.73875222  0.98926641  0.82847259  1
  Cl  Cl42  1  0.49975938  0.74323217  0.99981790  1
  Cl  Cl43  1  0.76029584  0.51387318  0.33242718  1
  Cl  Cl44  1  0.16950219  0.48959066  0.26331086  1
  Cl  Cl45  1  0.99978995  0.75677976  0.50014834  1
  Cl  Cl46  1  0.23875169  0.51076721  0.67154053  1
  Cl  Cl47  1  0.83117349  0.48531794  0.74185979  1
