# generated using pymatgen
data_TiH10OsC2(N2Cl3)2
_symmetry_space_group_name_H-M   'P 1'
_cell_length_a   8.39740839
_cell_length_b   10.57437205
_cell_length_c   7.01549043
_cell_angle_alpha   90.22853865
_cell_angle_beta   89.99474342
_cell_angle_gamma   89.99603475
_symmetry_Int_Tables_number   1
_chemical_formula_structural   TiH10OsC2(N2Cl3)2
_chemical_formula_sum   'Ti2 H20 Os2 C4 N8 Cl12'
_cell_volume   622.95179322
_cell_formula_units_Z   2
loop_
 _symmetry_equiv_pos_site_id
 _symmetry_equiv_pos_as_xyz
  1  'x, y, z'
loop_
 _atom_site_type_symbol
 _atom_site_label
 _atom_site_symmetry_multiplicity
 _atom_site_fract_x
 _atom_site_fract_y
 _atom_site_fract_z
 _atom_site_occupancy
  C  C0  1  0.50673568  0.30558723  0.53093581  1
  C  C1  1  0.00674829  0.19442406  0.96903827  1
  C  C2  1  0.51178467  0.76369243  0.53637299  1
  C  C3  1  0.01178011  0.73629263  0.96360600  1
  N  N4  1  0.64187578  0.25451915  0.58280838  1
  N  N5  1  0.38520712  0.24400058  0.45873047  1
  N  N6  1  0.14191858  0.24544298  0.91721174  1
  N  N7  1  0.88526038  0.25604250  0.04135535  1
  N  N8  1  0.61872221  0.70983331  0.64613124  1
  N  N9  1  0.37268144  0.71463418  0.49247089  1
  N  N10  1  0.11867024  0.79011574  0.85376720  1
  N  N11  1  0.87268977  0.78538513  0.00755053  1
  H  H12  1  0.49337594  0.40733285  0.55009703  1
  H  H13  1  0.72581710  0.31025598  0.64685516  1
  H  H14  1  0.66454064  0.15921943  0.57982510  1
  H  H15  1  0.28429477  0.29044297  0.41832257  1
  H  H16  1  0.38751867  0.14883246  0.43636012  1
  H  H17  1  0.99329709  0.09269256  0.94974554  1
  H  H18  1  0.22581923  0.18969399  0.85307701  1
  H  H19  1  0.16465771  0.34072785  0.92028120  1
  H  H20  1  0.78430447  0.20964448  0.08168127  1
  H  H21  1  0.88764942  0.35119164  0.06382641  1
  H  H22  1  0.54331021  0.85524990  0.47510010  1
  H  H23  1  0.71256217  0.76681207  0.68251436  1
  H  H24  1  0.59391153  0.63374501  0.73807591  1
  H  H25  1  0.29925179  0.76191487  0.40213717  1
  H  H26  1  0.33591418  0.62929677  0.54600540  1
  H  H27  1  0.04329259  0.64475116  0.02493069  1
  H  H28  1  0.21253882  0.73309952  0.81738669  1
  H  H29  1  0.09391766  0.86619141  0.76183437  1
  H  H30  1  0.79927679  0.73815753  0.09796145  1
  H  H31  1  0.83589999  0.87071245  0.95395025  1
  Ti  Ti32  1  0.42077767  0.94316875  0.06719944  1
  Ti  Ti33  1  0.92076516  0.55685054  0.43287078  1
  Os  Os34  1  0.00129307  0.97004116  0.46741220  1
  Os  Os35  1  0.50125869  0.52999937  0.03255039  1
  Cl  Cl36  1  0.50901189  0.31241504  0.01477839  1
  Cl  Cl37  1  0.21077947  0.98251016  0.25925424  1
  Cl  Cl38  1  0.64056804  0.02536932  0.21006785  1
  Cl  Cl39  1  0.00899674  0.18762434  0.48531357  1
  Cl  Cl40  1  0.37353223  0.01412467  0.76679744  1
  Cl  Cl41  1  0.79072305  0.98045648  0.68717113  1
  Cl  Cl42  1  0.47576723  0.73978786  0.05898011  1
  Cl  Cl43  1  0.71075732  0.51754067  0.24077591  1
  Cl  Cl44  1  0.14054757  0.47462045  0.28999135  1
  Cl  Cl45  1  0.97578148  0.76024348  0.44097847  1
  Cl  Cl46  1  0.29070765  0.51952321  0.81280523  1
  Cl  Cl47  1  0.87352710  0.48585266  0.73321157  1
