# generated using pymatgen
data_TiH10PdC2(N2Cl3)2
_symmetry_space_group_name_H-M   'P 1'
_cell_length_a   8.01305091
_cell_length_b   9.43112480
_cell_length_c   8.00083815
_cell_angle_alpha   89.58601797
_cell_angle_beta   90.00109362
_cell_angle_gamma   90.00005147
_symmetry_Int_Tables_number   1
_chemical_formula_structural   TiH10PdC2(N2Cl3)2
_chemical_formula_sum   'Ti2 H20 Pd2 C4 N8 Cl12'
_cell_volume   604.62422303
_cell_formula_units_Z   2
loop_
 _symmetry_equiv_pos_site_id
 _symmetry_equiv_pos_as_xyz
  1  'x, y, z'
loop_
 _atom_site_type_symbol
 _atom_site_label
 _atom_site_symmetry_multiplicity
 _atom_site_fract_x
 _atom_site_fract_y
 _atom_site_fract_z
 _atom_site_occupancy
  C  C0  1  0.49698552  0.29640454  0.49594508  1
  C  C1  1  0.99700526  0.20359776  0.00406522  1
  C  C2  1  0.50274909  0.79631277  0.50245094  1
  C  C3  1  0.00269796  0.70369368  0.99758160  1
  N  N4  1  0.60704879  0.23548653  0.59329416  1
  N  N5  1  0.39118099  0.23343404  0.39688619  1
  N  N6  1  0.10707376  0.26450967  0.90671490  1
  N  N7  1  0.89122182  0.26658212  0.10312321  1
  N  N8  1  0.60001038  0.73338296  0.61092381  1
  N  N9  1  0.40221851  0.73531596  0.39621514  1
  N  N10  1  0.09997933  0.76664316  0.88905124  1
  N  N11  1  0.90220797  0.76464747  0.10375763  1
  H  H12  1  0.49262739  0.41140020  0.49781211  1
  H  H13  1  0.68330252  0.29799211  0.66436103  1
  H  H14  1  0.62039796  0.12872968  0.60733799  1
  H  H15  1  0.31103035  0.29499879  0.32798487  1
  H  H16  1  0.38507691  0.12670523  0.37924688  1
  H  H17  1  0.99263507  0.08860386  0.00218979  1
  H  H18  1  0.18331529  0.20201658  0.83564435  1
  H  H19  1  0.12044192  0.37128639  0.89268344  1
  H  H20  1  0.81106020  0.20500422  0.17203136  1
  H  H21  1  0.88513404  0.37328604  0.12077385  1
  H  H22  1  0.50602349  0.91134341  0.50009292  1
  H  H23  1  0.67167434  0.79499379  0.68765443  1
  H  H24  1  0.61289246  0.62640314  0.62323098  1
  H  H25  1  0.33330462  0.79789229  0.31706807  1
  H  H26  1  0.38336813  0.62877380  0.38913950  1
  H  H27  1  0.00603598  0.58865669  0.99992529  1
  H  H28  1  0.17164335  0.70503412  0.81234586  1
  H  H29  1  0.11281092  0.87360705  0.87674529  1
  H  H30  1  0.83329369  0.70208014  0.18293427  1
  H  H31  1  0.88330519  0.87121729  0.11084373  1
  Ti  Ti32  1  0.49915171  0.00000076  0.99726040  1
  Ti  Ti33  1  0.99915418  0.50000226  0.50275149  1
  Pd  Pd34  1  0.00135825  0.99990809  0.50209876  1
  Pd  Pd35  1  0.50137018  0.50009491  0.99790567  1
  Cl  Cl36  1  0.50023147  0.25121087  0.99742668  1
  Cl  Cl37  1  0.25668168  0.98693197  0.17304697  1
  Cl  Cl38  1  0.67558327  0.01056654  0.24042754  1
  Cl  Cl39  1  0.00022653  0.24879807  0.50259644  1
  Cl  Cl40  1  0.32479912  0.01405848  0.75388577  1
  Cl  Cl41  1  0.74268968  0.98876345  0.82181052  1
  Cl  Cl42  1  0.49961254  0.74888722  0.00056445  1
  Cl  Cl43  1  0.75667182  0.51305408  0.32696146  1
  Cl  Cl44  1  0.17557915  0.48943627  0.25957500  1
  Cl  Cl45  1  0.99963912  0.75111039  0.49941369  1
  Cl  Cl46  1  0.24270202  0.51125853  0.67820236  1
  Cl  Cl47  1  0.82481541  0.48594561  0.74612247  1
