# generated using pymatgen
data_TiH10RuC2(N2Cl3)2
_symmetry_space_group_name_H-M   'P 1'
_cell_length_a   8.22906137
_cell_length_b   10.65740951
_cell_length_c   7.23381828
_cell_angle_alpha   89.27023672
_cell_angle_beta   90.21127893
_cell_angle_gamma   89.86119961
_symmetry_Int_Tables_number   1
_chemical_formula_structural   TiH10RuC2(N2Cl3)2
_chemical_formula_sum   'Ti2 H20 Ru2 C4 N8 Cl12'
_cell_volume   634.35160727
_cell_formula_units_Z   2
loop_
 _symmetry_equiv_pos_site_id
 _symmetry_equiv_pos_as_xyz
  1  'x, y, z'
loop_
 _atom_site_type_symbol
 _atom_site_label
 _atom_site_symmetry_multiplicity
 _atom_site_fract_x
 _atom_site_fract_y
 _atom_site_fract_z
 _atom_site_occupancy
  C  C0  1  0.50098014  0.27735757  0.53114741  1
  C  C1  1  0.00450267  0.22248903  0.96735137  1
  C  C2  1  0.49481047  0.77868770  0.52575202  1
  C  C3  1  0.99374828  0.72140200  0.97547041  1
  N  N4  1  0.65784427  0.25498178  0.53868203  1
  N  N5  1  0.40044926  0.22273881  0.41699505  1
  N  N6  1  0.16095006  0.24595475  0.96087714  1
  N  N7  1  0.90325104  0.27661457  0.08068566  1
  N  N8  1  0.60737542  0.74131495  0.64322699  1
  N  N9  1  0.36732650  0.71247933  0.47889676  1
  N  N10  1  0.10600507  0.75892453  0.85891387  1
  N  N11  1  0.86628914  0.78780693  0.02215788  1
  H  H12  1  0.45171720  0.34664718  0.62615593  1
  H  H13  1  0.72765489  0.30177802  0.63160609  1
  H  H14  1  0.71378583  0.18639732  0.46478381  1
  H  H15  1  0.27634802  0.23309469  0.43114844  1
  H  H16  1  0.44217547  0.15825464  0.32526933  1
  H  H17  1  0.95631828  0.15276193  0.87221621  1
  H  H18  1  0.23152800  0.19952552  0.86861046  1
  H  H19  1  0.21562406  0.31519552  0.03471754  1
  H  H20  1  0.77928940  0.26549535  0.06611642  1
  H  H21  1  0.94400199  0.34138596  0.17262402  1
  H  H22  1  0.51139240  0.87077373  0.46075553  1
  H  H23  1  0.69305556  0.80723583  0.67897002  1
  H  H24  1  0.59659588  0.66069196  0.72267296  1
  H  H25  1  0.28793106  0.74735493  0.38330195  1
  H  H26  1  0.34414434  0.62654571  0.53931412  1
  H  H27  1  0.01058869  0.62902213  0.03976228  1
  H  H28  1  0.19156529  0.69286145  0.82278239  1
  H  H29  1  0.09462194  0.83972561  0.77982811  1
  H  H30  1  0.78727335  0.75291835  0.11725460  1
  H  H31  1  0.84314046  0.87418290  0.96273482  1
  Ti  Ti32  1  0.41042715  0.93514397  0.05525999  1
  Ti  Ti33  1  0.91282403  0.56422743  0.44524569  1
  Ru  Ru34  1  0.00547780  0.97419224  0.46934654  1
  Ru  Ru35  1  0.50663323  0.52557100  0.03031302  1
  Cl  Cl36  1  0.53459596  0.30735227  0.99908140  1
  Cl  Cl37  1  0.19926877  0.97794292  0.24077283  1
  Cl  Cl38  1  0.63690790  0.01604859  0.19321738  1
  Cl  Cl39  1  0.03221695  0.19257255  0.49949846  1
  Cl  Cl40  1  0.35028445  0.00558995  0.76640141  1
  Cl  Cl41  1  0.80929394  0.98770438  0.70652728  1
  Cl  Cl42  1  0.46880591  0.73313659  0.05387441  1
  Cl  Cl43  1  0.70161758  0.52134737  0.25885427  1
  Cl  Cl44  1  0.13910087  0.48374260  0.30704595  1
  Cl  Cl45  1  0.96908114  0.76643519  0.44726391  1
  Cl  Cl46  1  0.30887481  0.51280129  0.79326608  1
  Cl  Cl47  1  0.85232445  0.49365395  0.73335451  1
