# generated using pymatgen
data_CrH10OsC2(N2Cl3)2
_symmetry_space_group_name_H-M   'P 1'
_cell_length_a   9.80493315
_cell_length_b   6.70028655
_cell_length_c   9.95401057
_cell_angle_alpha   82.51705897
_cell_angle_beta   89.99957998
_cell_angle_gamma   90.00031350
_symmetry_Int_Tables_number   1
_chemical_formula_structural   CrH10OsC2(N2Cl3)2
_chemical_formula_sum   'Cr2 H20 Os2 C4 N8 Cl12'
_cell_volume   648.36816155
_cell_formula_units_Z   2
loop_
 _symmetry_equiv_pos_site_id
 _symmetry_equiv_pos_as_xyz
  1  'x, y, z'
loop_
 _atom_site_type_symbol
 _atom_site_label
 _atom_site_symmetry_multiplicity
 _atom_site_fract_x
 _atom_site_fract_y
 _atom_site_fract_z
 _atom_site_occupancy
  C  C0  1  0.48723849  0.24874027  0.54607032  1
  C  C1  1  0.98723831  0.25124473  0.95393704  1
  C  C2  1  0.49655513  0.77633543  0.46916898  1
  C  C3  1  0.99659475  0.72368582  0.03081993  1
  N  N4  1  0.61513151  0.28371905  0.57242284  1
  N  N5  1  0.43940959  0.23741642  0.42387949  1
  N  N6  1  0.11513646  0.21629739  0.92760545  1
  N  N7  1  0.93938164  0.26257446  0.07611729  1
  N  N8  1  0.57647957  0.76307307  0.57595871  1
  N  N9  1  0.36656355  0.72856274  0.47239072  1
  N  N10  1  0.07651105  0.73695186  0.92403686  1
  N  N11  1  0.86659071  0.77142301  0.02760537  1
  H  H12  1  0.41599990  0.22465569  0.63079222  1
  H  H13  1  0.64503842  0.29165898  0.67012069  1
  H  H14  1  0.68597146  0.31790973  0.49671597  1
  H  H15  1  0.33682491  0.22922097  0.40849118  1
  H  H16  1  0.49821422  0.27235340  0.33916374  1
  H  H17  1  0.91601099  0.27529513  0.86920327  1
  H  H18  1  0.14506477  0.20835106  0.82991419  1
  H  H19  1  0.18596830  0.18213343  0.00332506  1
  H  H20  1  0.83679404  0.27073703  0.09149103  1
  H  H21  1  0.99817698  0.22765917  0.16084245  1
  H  H22  1  0.54133192  0.83157951  0.37073771  1
  H  H23  1  0.67683850  0.80196273  0.56704782  1
  H  H24  1  0.54314611  0.70682975  0.67087864  1
  H  H25  1  0.31118374  0.74834110  0.38491225  1
  H  H26  1  0.31598530  0.68558326  0.56122947  1
  H  H27  1  0.04137920  0.66846606  0.12925666  1
  H  H28  1  0.17688193  0.69809972  0.93294337  1
  H  H29  1  0.04317659  0.79317645  0.82911056  1
  H  H30  1  0.81121534  0.75162961  0.11508139  1
  H  H31  1  0.81601401  0.81436992  0.93876190  1
  Cr  Cr32  1  0.49712981  0.12295730  0.04646851  1
  Cr  Cr33  1  0.99713422  0.37704356  0.45354417  1
  Os  Os34  1  0.00192380  0.09303430  0.52035709  1
  Os  Os35  1  0.50191906  0.40697815  0.97965869  1
  Cl  Cl36  1  0.51669087  0.96790751  0.86524551  1
  Cl  Cl37  1  0.30932157  0.01413398  0.16417385  1
  Cl  Cl38  1  0.66351398  0.05032758  0.20012365  1
  Cl  Cl39  1  0.01670690  0.53211278  0.63477762  1
  Cl  Cl40  1  0.19969991  0.01399853  0.65834403  1
  Cl  Cl41  1  0.85217710  0.99566848  0.70455825  1
  Cl  Cl42  1  0.50751891  0.57340142  0.16644806  1
  Cl  Cl43  1  0.80930428  0.48587665  0.33583627  1
  Cl  Cl44  1  0.16352493  0.44965582  0.29985469  1
  Cl  Cl45  1  0.00751825  0.92661721  0.33356569  1
  Cl  Cl46  1  0.35218172  0.50432381  0.79544466  1
  Cl  Cl47  1  0.69970664  0.48598892  0.84167144  1
