# generated using pymatgen
data_CrH10RuC2(N2Cl3)2
_symmetry_space_group_name_H-M   'P 1'
_cell_length_a   9.98123078
_cell_length_b   6.73705408
_cell_length_c   9.79628390
_cell_angle_alpha   80.92054640
_cell_angle_beta   90.00410702
_cell_angle_gamma   89.98407730
_symmetry_Int_Tables_number   1
_chemical_formula_structural   CrH10RuC2(N2Cl3)2
_chemical_formula_sum   'Cr2 H20 Ru2 C4 N8 Cl12'
_cell_volume   650.48844412
_cell_formula_units_Z   2
loop_
 _symmetry_equiv_pos_site_id
 _symmetry_equiv_pos_as_xyz
  1  'x, y, z'
loop_
 _atom_site_type_symbol
 _atom_site_label
 _atom_site_symmetry_multiplicity
 _atom_site_fract_x
 _atom_site_fract_y
 _atom_site_fract_z
 _atom_site_occupancy
  C  C0  1  0.48858304  0.25174088  0.55412820  1
  C  C1  1  0.98863989  0.24811303  0.94592013  1
  C  C2  1  0.49314597  0.76709020  0.47894757  1
  C  C3  1  0.99264461  0.73281576  0.02106757  1
  N  N4  1  0.61257658  0.30399792  0.57328432  1
  N  N5  1  0.43797104  0.22993967  0.43343055  1
  N  N6  1  0.11277521  0.19667072  0.92653267  1
  N  N7  1  0.93813932  0.26963048  0.06670091  1
  N  N8  1  0.55997698  0.76899692  0.59410533  1
  N  N9  1  0.36667193  0.71459153  0.47317743  1
  N  N10  1  0.05965167  0.73137365  0.90595804  1
  N  N11  1  0.86610976  0.78514694  0.02670874  1
  H  H12  1  0.42281675  0.22225482  0.64396824  1
  H  H13  1  0.64502537  0.31876261  0.67053642  1
  H  H14  1  0.67963382  0.33596025  0.49318147  1
  H  H15  1  0.33836593  0.20086373  0.42637905  1
  H  H16  1  0.48797019  0.27799828  0.34288842  1
  H  H17  1  0.92266370  0.27714022  0.85619668  1
  H  H18  1  0.14515326  0.18209607  0.82923527  1
  H  H19  1  0.17998273  0.16498129  0.00654018  1
  H  H20  1  0.83842774  0.29785845  0.07401842  1
  H  H21  1  0.98841898  0.22189604  0.15714917  1
  H  H22  1  0.54582786  0.81170835  0.38114037  1
  H  H23  1  0.65836727  0.81186381  0.59350969  1
  H  H24  1  0.51696193  0.72004290  0.68843692  1
  H  H25  1  0.32150281  0.71906740  0.37938808  1
  H  H26  1  0.30862287  0.68093602  0.55969231  1
  H  H27  1  0.04522601  0.68796189  0.11891665  1
  H  H28  1  0.15808131  0.68865250  0.90664821  1
  H  H29  1  0.01671059  0.78050823  0.81160296  1
  H  H30  1  0.82079800  0.78021838  0.12045965  1
  H  H31  1  0.80813176  0.81899531  0.94014579  1
  Cr  Cr32  1  0.50913033  0.12235254  0.05250017  1
  Cr  Cr33  1  0.00908614  0.37773098  0.44751078  1
  Ru  Ru34  1  0.01248009  0.11246691  0.50997671  1
  Ru  Ru35  1  0.51246299  0.38757788  0.99001138  1
  Cl  Cl36  1  0.53874387  0.96399320  0.87513356  1
  Cl  Cl37  1  0.31998324  0.02188659  0.16333339  1
  Cl  Cl38  1  0.66991967  0.04822680  0.21070240  1
  Cl  Cl39  1  0.03844555  0.53589895  0.62498281  1
  Cl  Cl40  1  0.20640739  0.01898225  0.65152319  1
  Cl  Cl41  1  0.84632959  0.98378477  0.67862850  1
  Cl  Cl42  1  0.51435861  0.57202376  0.17454348  1
  Cl  Cl43  1  0.81993720  0.47824884  0.33658962  1
  Cl  Cl44  1  0.16985904  0.45184935  0.28936898  1
  Cl  Cl45  1  0.01455302  0.92784996  0.32558811  1
  Cl  Cl46  1  0.34636342  0.51658732  0.82126312  1
  Cl  Cl47  1  0.70638429  0.48072864  0.84845314  1
