# generated using pymatgen
data_TlCoH10C2(N2Cl3)2
_symmetry_space_group_name_H-M   'P 1'
_cell_length_a   7.73887574
_cell_length_b   10.59845840
_cell_length_c   7.72213879
_cell_angle_alpha   89.59309955
_cell_angle_beta   90.00565662
_cell_angle_gamma   90.00110473
_symmetry_Int_Tables_number   1
_chemical_formula_structural   TlCoH10C2(N2Cl3)2
_chemical_formula_sum   'Tl2 Co2 H20 C4 N8 Cl12'
_cell_volume   633.35502703
_cell_formula_units_Z   2
loop_
 _symmetry_equiv_pos_site_id
 _symmetry_equiv_pos_as_xyz
  1  'x, y, z'
loop_
 _atom_site_type_symbol
 _atom_site_label
 _atom_site_symmetry_multiplicity
 _atom_site_fract_x
 _atom_site_fract_y
 _atom_site_fract_z
 _atom_site_occupancy
  C  C0  1  0.49485843  0.29344627  0.49607616  1
  C  C1  1  0.99489549  0.20655337  0.00393217  1
  C  C2  1  0.50468979  0.79342935  0.50310539  1
  C  C3  1  0.00463408  0.70657746  0.99689291  1
  N  N4  1  0.60571547  0.23728301  0.59875482  1
  N  N5  1  0.38857425  0.23732472  0.38959601  1
  N  N6  1  0.10576417  0.26271140  0.90129594  1
  N  N7  1  0.88860962  0.26267352  0.11040538  1
  N  N8  1  0.60858782  0.73716870  0.61269574  1
  N  N9  1  0.39767984  0.73734141  0.39720487  1
  N  N10  1  0.10853761  0.76284902  0.88731304  1
  N  N11  1  0.89762239  0.76264859  0.10275578  1
  H  H12  1  0.49024552  0.39602926  0.49967764  1
  H  H13  1  0.68735796  0.29159259  0.67057087  1
  H  H14  1  0.61002188  0.14204851  0.61935772  1
  H  H15  1  0.30235050  0.29187551  0.32245539  1
  H  H16  1  0.39031144  0.14293871  0.36353465  1
  H  H17  1  0.99025352  0.10396275  0.00031693  1
  H  H18  1  0.18740923  0.20840295  0.82947782  1
  H  H19  1  0.11009544  0.35795482  0.88071476  1
  H  H20  1  0.80237378  0.20813364  0.17752114  1
  H  H21  1  0.89037963  0.35706177  0.13646655  1
  H  H22  1  0.50762435  0.89607945  0.49946666  1
  H  H23  1  0.67971122  0.79189733  0.69451889  1
  H  H24  1  0.63002662  0.64204574  0.61698266  1
  H  H25  1  0.32913491  0.79154986  0.31166554  1
  H  H26  1  0.37221484  0.64281269  0.39954970  1
  H  H27  1  0.00759409  0.60392525  0.00052375  1
  H  H28  1  0.17967597  0.70813464  0.80551688  1
  H  H29  1  0.12995641  0.85797461  0.88304386  1
  H  H30  1  0.82906797  0.70843234  0.18829586  1
  H  H31  1  0.87213122  0.85718255  0.10041664  1
  Co  Co32  1  0.49979262  0.00003719  0.99803475  1
  Co  Co33  1  0.99979488  0.49996560  0.50196808  1
  Tl  Tl34  1  0.00176199  0.00002601  0.49626352  1
  Tl  Tl35  1  0.50177288  0.49998303  0.00372915  1
  Cl  Cl36  1  0.49961254  0.21288870  0.99518065  1
  Cl  Cl37  1  0.26426640  0.99151997  0.17747229  1
  Cl  Cl38  1  0.67919532  0.00795051  0.23403878  1
  Cl  Cl39  1  0.99959019  0.28711578  0.50485381  1
  Cl  Cl40  1  0.32027218  0.00836525  0.76223410  1
  Cl  Cl41  1  0.73528558  0.99239320  0.81791171  1
  Cl  Cl42  1  0.50076410  0.78719865  0.00222780  1
  Cl  Cl43  1  0.76424743  0.50847447  0.32252458  1
  Cl  Cl44  1  0.17917088  0.49204000  0.26596673  1
  Cl  Cl45  1  0.00079777  0.71280512  0.49773567  1
  Cl  Cl46  1  0.23529736  0.50761262  0.68210592  1
  Cl  Cl47  1  0.82029176  0.49164508  0.73775507  1
