# generated using pymatgen
data_InCoH10C2(N2Cl3)2
_symmetry_space_group_name_H-M   'P 1'
_cell_length_a   7.73978969
_cell_length_b   10.46210420
_cell_length_c   7.72387908
_cell_angle_alpha   89.54533307
_cell_angle_beta   90.00472777
_cell_angle_gamma   90.00263693
_symmetry_Int_Tables_number   1
_chemical_formula_structural   InCoH10C2(N2Cl3)2
_chemical_formula_sum   'In2 Co2 H20 C4 N8 Cl12'
_cell_volume   625.41744504
_cell_formula_units_Z   2
loop_
 _symmetry_equiv_pos_site_id
 _symmetry_equiv_pos_as_xyz
  1  'x, y, z'
loop_
 _atom_site_type_symbol
 _atom_site_label
 _atom_site_symmetry_multiplicity
 _atom_site_fract_x
 _atom_site_fract_y
 _atom_site_fract_z
 _atom_site_occupancy
  C  C0  1  0.49544776  0.29356062  0.49610013  1
  C  C1  1  0.99546529  0.20644453  0.00391944  1
  C  C2  1  0.50385552  0.79350338  0.50300759  1
  C  C3  1  0.00380916  0.70649556  0.99699527  1
  N  N4  1  0.60617037  0.23694251  0.59903293  1
  N  N5  1  0.38930786  0.23644878  0.38992857  1
  N  N6  1  0.10622325  0.26306846  0.90100135  1
  N  N7  1  0.88934980  0.26355315  0.11006435  1
  N  N8  1  0.60795047  0.73625262  0.61209919  1
  N  N9  1  0.39716918  0.73694692  0.39681941  1
  N  N10  1  0.10789989  0.76376071  0.88790918  1
  N  N11  1  0.89712264  0.76303960  0.10315514  1
  H  H12  1  0.49081778  0.39742749  0.49905614  1
  H  H13  1  0.68741906  0.29220662  0.67095295  1
  H  H14  1  0.61087684  0.14050763  0.62000832  1
  H  H15  1  0.30353302  0.29153613  0.32195122  1
  H  H16  1  0.39089135  0.14075861  0.36454773  1
  H  H17  1  0.99082490  0.10257787  0.00093151  1
  H  H18  1  0.18745256  0.20780305  0.82908524  1
  H  H19  1  0.11094219  0.35950631  0.88005001  1
  H  H20  1  0.80356494  0.20847282  0.17802532  1
  H  H21  1  0.89095740  0.35924097  0.13546014  1
  H  H22  1  0.50632041  0.89744051  0.50024811  1
  H  H23  1  0.67936536  0.79148216  0.69381328  1
  H  H24  1  0.62946878  0.63991603  0.61601411  1
  H  H25  1  0.32799101  0.79214932  0.31201285  1
  H  H26  1  0.37225500  0.64109641  0.39806330  1
  H  H27  1  0.00629434  0.60255884  0.99975150  1
  H  H28  1  0.17932827  0.70854102  0.80621148  1
  H  H29  1  0.12940231  0.86009959  0.88400662  1
  H  H30  1  0.82795133  0.70783417  0.18795844  1
  H  H31  1  0.87219717  0.85888675  0.10190640  1
  Co  Co32  1  0.49984967  0.00003039  0.99779546  1
  Co  Co33  1  0.99984800  0.49996912  0.50220901  1
  In  In34  1  0.00195297  0.99998014  0.49669294  1
  In  In35  1  0.50197401  0.50002422  0.00330145  1
  Cl  Cl36  1  0.50007922  0.21760231  0.99575846  1
  Cl  Cl37  1  0.26439232  0.99074065  0.17974377  1
  Cl  Cl38  1  0.68173474  0.00769021  0.23346233  1
  Cl  Cl39  1  1.00004595  0.28239658  0.50426345  1
  Cl  Cl40  1  0.31782976  0.00976807  0.76209095  1
  Cl  Cl41  1  0.73508960  0.99198947  0.81528817  1
  Cl  Cl42  1  0.50027469  0.78245574  0.00137176  1
  Cl  Cl43  1  0.76437471  0.50925108  0.32024148  1
  Cl  Cl44  1  0.18171107  0.49230972  0.26655425  1
  Cl  Cl45  1  0.00030056  0.71754406  0.49860594  1
  Cl  Cl46  1  0.23509874  0.50802147  0.68474009  1
  Cl  Cl47  1  0.81783811  0.49023058  0.73789806  1
