# generated using pymatgen
data_InCuH12C2(I3N)2
_symmetry_space_group_name_H-M   'P 1'
_cell_length_a   7.92334444
_cell_length_b   11.78368102
_cell_length_c   8.41174478
_cell_angle_alpha   90.23723287
_cell_angle_beta   89.96162424
_cell_angle_gamma   90.00221606
_symmetry_Int_Tables_number   1
_chemical_formula_structural   InCuH12C2(I3N)2
_chemical_formula_sum   'In2 Cu2 H24 C4 I12 N4'
_cell_volume   785.36542968
_cell_formula_units_Z   2
loop_
 _symmetry_equiv_pos_site_id
 _symmetry_equiv_pos_as_xyz
  1  'x, y, z'
loop_
 _atom_site_type_symbol
 _atom_site_label
 _atom_site_symmetry_multiplicity
 _atom_site_fract_x
 _atom_site_fract_y
 _atom_site_fract_z
 _atom_site_occupancy
  C  C0  1  0.44130695  0.25140361  0.41618809  1
  C  C1  1  0.94120111  0.24858605  0.08344518  1
  C  C2  1  0.55848626  0.74883872  0.58761521  1
  C  C3  1  0.05859287  0.75121974  0.91263621  1
  N  N4  1  0.54340077  0.25142491  0.56361527  1
  N  N5  1  0.04343897  0.24856960  0.93597943  1
  N  N6  1  0.45352023  0.74742888  0.44194689  1
  N  N7  1  0.95364926  0.75246260  0.05845438  1
  H  H8  1  0.52699570  0.25154660  0.31437752  1
  H  H9  1  0.36343394  0.17477800  0.41383571  1
  H  H10  1  0.36212464  0.32748056  0.41573479  1
  H  H11  1  0.61946698  0.18004086  0.56920451  1
  H  H12  1  0.62225893  0.32162421  0.56768238  1
  H  H13  1  0.47083332  0.25289022  0.66671997  1
  H  H14  1  0.02680133  0.24842188  0.18521970  1
  H  H15  1  0.86198746  0.17253115  0.08391906  1
  H  H16  1  0.86336969  0.32523269  0.08583998  1
  H  H17  1  0.12222545  0.17833539  0.93182382  1
  H  H18  1  0.11956317  0.31991817  0.93036767  1
  H  H19  1  0.97094468  0.24714956  0.83290018  1
  H  H20  1  0.47448725  0.74872651  0.69067527  1
  H  H21  1  0.63812826  0.67301660  0.58791422  1
  H  H22  1  0.63572510  0.82577152  0.58802296  1
  H  H23  1  0.37598978  0.81809083  0.43792835  1
  H  H24  1  0.37556467  0.67668790  0.44035414  1
  H  H25  1  0.52356816  0.74646902  0.33720000  1
  H  H26  1  0.97458736  0.75138476  0.80970136  1
  H  H27  1  0.13820263  0.82705107  0.91237636  1
  H  H28  1  0.13587841  0.67429074  0.91202094  1
  H  H29  1  0.87560363  0.82315540  0.06028776  1
  H  H30  1  0.87621623  0.68175529  0.06251216  1
  H  H31  1  0.02372518  0.75339340  0.16310249  1
  Cu  Cu32  1  0.51760422  0.00287998  0.02208479  1
  Cu  Cu33  1  0.01741286  0.49731127  0.47864482  1
  In  In34  1  0.01256478  0.00105636  0.48628438  1
  In  In35  1  0.51273643  0.49897557  0.01403265  1
  I  I36  1  0.48762662  0.25282464  0.97839218  1
  I  I37  1  0.21821326  0.00199649  0.17046761  1
  I  I38  1  0.69390554  0.00031512  0.30989702  1
  I  I39  1  0.98762649  0.24726403  0.52132160  1
  I  I40  1  0.29997662  0.00070057  0.69314551  1
  I  I41  1  0.77526434  0.99964988  0.82491643  1
  I  I42  1  0.50912630  0.74637513  0.02752954  1
  I  I43  1  0.71827373  0.49802396  0.32948944  1
  I  I44  1  0.19382758  0.49956746  0.19017772  1
  I  I45  1  0.00909728  0.75360649  0.47274781  1
  I  I46  1  0.27537147  0.50031006  0.67507053  1
  I  I47  1  0.80011784  0.49954484  0.80649263  1
