# generated using pymatgen
data_GaCoH10C2(N2Cl3)2
_symmetry_space_group_name_H-M   'P 1'
_cell_length_a   7.71924928
_cell_length_b   10.30221050
_cell_length_c   7.70295053
_cell_angle_alpha   89.56054783
_cell_angle_beta   90.00494087
_cell_angle_gamma   89.99962274
_symmetry_Int_Tables_number   1
_chemical_formula_structural   GaCoH10C2(N2Cl3)2
_chemical_formula_sum   'Ga2 Co2 H20 C4 N8 Cl12'
_cell_volume   612.56167010
_cell_formula_units_Z   2
loop_
 _symmetry_equiv_pos_site_id
 _symmetry_equiv_pos_as_xyz
  1  'x, y, z'
loop_
 _atom_site_type_symbol
 _atom_site_label
 _atom_site_symmetry_multiplicity
 _atom_site_fract_x
 _atom_site_fract_y
 _atom_site_fract_z
 _atom_site_occupancy
  C  C0  1  0.49538144  0.29426872  0.49592743  1
  C  C1  1  0.99543833  0.20573503  0.00407023  1
  C  C2  1  0.50393373  0.79420888  0.50288806  1
  C  C3  1  0.00389931  0.70580311  0.99710679  1
  N  N4  1  0.60666032  0.23672867  0.59869376  1
  N  N5  1  0.38868256  0.23628037  0.38988888  1
  N  N6  1  0.10671991  0.26327897  0.90134684  1
  N  N7  1  0.88874934  0.26371218  0.11008790  1
  N  N8  1  0.60779786  0.73606860  0.61263937  1
  N  N9  1  0.39728776  0.73674607  0.39626898  1
  N  N10  1  0.10772940  0.76394374  0.88738824  1
  N  N11  1  0.89722981  0.76324820  0.10370901  1
  H  H12  1  0.49081241  0.39965635  0.49900551  1
  H  H13  1  0.68752598  0.29284027  0.67140108  1
  H  H14  1  0.61219277  0.13874423  0.61858980  1
  H  H15  1  0.30330565  0.29239041  0.32124405  1
  H  H16  1  0.38946703  0.13901726  0.36531497  1
  H  H17  1  0.99083671  0.10034292  0.00098750  1
  H  H18  1  0.18758716  0.20715731  0.82862711  1
  H  H19  1  0.11227738  0.36126048  0.88145786  1
  H  H20  1  0.80336104  0.20761381  0.17871948  1
  H  H21  1  0.88955293  0.36097799  0.13467279  1
  H  H22  1  0.50666427  0.89965953  0.49996486  1
  H  H23  1  0.68002294  0.79226748  0.69385988  1
  H  H24  1  0.62825829  0.63818702  0.61746798  1
  H  H25  1  0.32750110  0.79286400  0.31171033  1
  H  H26  1  0.37317315  0.63933451  0.39676818  1
  H  H27  1  0.00664079  0.60034463  0.00004882  1
  H  H28  1  0.17998811  0.70775904  0.80618064  1
  H  H29  1  0.12818694  0.86183639  0.88255392  1
  H  H30  1  0.82745246  0.70712355  0.18825814  1
  H  H31  1  0.87310173  0.86065648  0.10319669  1
  Co  Co32  1  0.49965019  0.00003644  0.99765953  1
  Co  Co33  1  0.99965003  0.49996402  0.50234821  1
  Ga  Ga34  1  0.00394977  0.00007573  0.49821591  1
  Ga  Ga35  1  0.50400108  0.49991314  0.00176980  1
  Cl  Cl36  1  0.49982642  0.22119195  0.99539591  1
  Cl  Cl37  1  0.26274228  0.99026084  0.17868716  1
  Cl  Cl38  1  0.68048011  0.00814304  0.23438370  1
  Cl  Cl39  1  0.99981018  0.27880780  0.50464435  1
  Cl  Cl40  1  0.31838779  0.01029090  0.76024535  1
  Cl  Cl41  1  0.73617638  0.99157045  0.81600261  1
  Cl  Cl42  1  0.50005443  0.77891917  0.00147748  1
  Cl  Cl43  1  0.76271543  0.50973358  0.32129521  1
  Cl  Cl44  1  0.18046554  0.49185550  0.26564158  1
  Cl  Cl45  1  0.00009663  0.72108808  0.49850316  1
  Cl  Cl46  1  0.23618909  0.50844343  0.68404055  1
  Cl  Cl47  1  0.81840537  0.48971271  0.73974913  1
