# generated using pymatgen
data_NiHgH10C2(N2Cl3)2
_symmetry_space_group_name_H-M   'P 1'
_cell_length_a   6.87359923
_cell_length_b   10.61977568
_cell_length_c   8.51804334
_cell_angle_alpha   90.20633900
_cell_angle_beta   89.99424400
_cell_angle_gamma   89.99859092
_symmetry_Int_Tables_number   1
_chemical_formula_structural   NiHgH10C2(N2Cl3)2
_chemical_formula_sum   'Ni2 Hg2 H20 C4 N8 Cl12'
_cell_volume   621.77975356
_cell_formula_units_Z   2
loop_
 _symmetry_equiv_pos_site_id
 _symmetry_equiv_pos_as_xyz
  1  'x, y, z'
loop_
 _atom_site_type_symbol
 _atom_site_label
 _atom_site_symmetry_multiplicity
 _atom_site_fract_x
 _atom_site_fract_y
 _atom_site_fract_z
 _atom_site_occupancy
  C  C0  1  0.46999084  0.29064190  0.49130021  1
  C  C1  1  0.96996882  0.20936888  0.00868332  1
  C  C2  1  0.52872083  0.79667720  0.50435447  1
  C  C3  1  0.02872543  0.70330043  0.99568299  1
  N  N4  1  0.55167472  0.26081746  0.62452398  1
  N  N5  1  0.45764127  0.21651189  0.36785958  1
  N  N6  1  0.05167933  0.23919269  0.87545162  1
  N  N7  1  0.95756417  0.28349333  0.13214372  1
  N  N8  1  0.53277155  0.72269815  0.62665132  1
  N  N9  1  0.44533308  0.76984615  0.36978272  1
  N  N10  1  0.03288013  0.77728219  0.87336139  1
  N  N11  1  0.94531858  0.73016595  0.13025864  1
  H  H12  1  0.40503333  0.38369965  0.48279311  1
  H  H13  1  0.56221689  0.32695908  0.71103384  1
  H  H14  1  0.61342471  0.17520226  0.64822916  1
  H  H15  1  0.39362302  0.24699133  0.26707801  1
  H  H16  1  0.52534125  0.13123846  0.36101879  1
  H  H17  1  0.90501890  0.11630983  0.01720784  1
  H  H18  1  0.06222422  0.17306484  0.78892881  1
  H  H19  1  0.11340666  0.32481883  0.85172471  1
  H  H20  1  0.89354476  0.25300283  0.23292192  1
  H  H21  1  0.02525282  0.36877051  0.13898101  1
  H  H22  1  0.60103168  0.88742588  0.51557008  1
  H  H23  1  0.58928344  0.75519965  0.73042903  1
  H  H24  1  0.45869302  0.63899829  0.63079189  1
  H  H25  1  0.43843525  0.83478230  0.28161509  1
  H  H26  1  0.36676082  0.68917745  0.35414764  1
  H  H27  1  0.10097200  0.61252941  0.98445372  1
  H  H28  1  0.08936858  0.74474009  0.76958512  1
  H  H29  1  0.95882629  0.86098799  0.86921463  1
  H  H30  1  0.93833645  0.66523434  0.21842766  1
  H  H31  1  0.86682278  0.81087214  0.14591580  1
  Ni  Ni32  1  0.49929027  0.99801051  0.97782019  1
  Ni  Ni33  1  0.99923387  0.50199770  0.52217476  1
  Hg  Hg34  1  0.03102364  0.00623191  0.45617734  1
  Hg  Hg35  1  0.53097054  0.49377829  0.04379584  1
  Cl  Cl36  1  0.49897403  0.20523440  0.98929005  1
  Cl  Cl37  1  0.25738557  0.99187219  0.14570721  1
  Cl  Cl38  1  0.77283791  0.00269804  0.27305132  1
  Cl  Cl39  1  0.99897925  0.29475933  0.51070277  1
  Cl  Cl40  1  0.25369999  0.00769766  0.66229772  1
  Cl  Cl41  1  0.72691004  0.00063988  0.79010223  1
  Cl  Cl42  1  0.52012391  0.79130531  0.98787038  1
  Cl  Cl43  1  0.75736980  0.50812667  0.35433512  1
  Cl  Cl44  1  0.27282703  0.49730473  0.22701067  1
  Cl  Cl45  1  0.02000734  0.70872285  0.51216340  1
  Cl  Cl46  1  0.22684310  0.49936404  0.70985051  1
  Cl  Cl47  1  0.75365741  0.49231808  0.83763340  1
