# generated using pymatgen
data_HfNiH10C2(N2Cl3)2
_symmetry_space_group_name_H-M   'P 1'
_cell_length_a   8.25730047
_cell_length_b   8.88972600
_cell_length_c   8.35392987
_cell_angle_alpha   89.59078437
_cell_angle_beta   90.00482746
_cell_angle_gamma   89.99948367
_symmetry_Int_Tables_number   1
_chemical_formula_structural   HfNiH10C2(N2Cl3)2
_chemical_formula_sum   'Hf2 Ni2 H20 C4 N8 Cl12'
_cell_volume   613.20573809
_cell_formula_units_Z   2
loop_
 _symmetry_equiv_pos_site_id
 _symmetry_equiv_pos_as_xyz
  1  'x, y, z'
loop_
 _atom_site_type_symbol
 _atom_site_label
 _atom_site_symmetry_multiplicity
 _atom_site_fract_x
 _atom_site_fract_y
 _atom_site_fract_z
 _atom_site_occupancy
  C  C0  1  0.49342279  0.29764286  0.50920127  1
  C  C1  1  0.99341942  0.20236778  0.99079750  1
  C  C2  1  0.50737474  0.79477399  0.50561921  1
  C  C3  1  0.00732172  0.70522776  0.99437270  1
  N  N4  1  0.59721787  0.23799084  0.60939153  1
  N  N5  1  0.41663753  0.22923750  0.39401474  1
  N  N6  1  0.09722272  0.26200364  0.89062048  1
  N  N7  1  0.91667333  0.27077870  0.10598992  1
  N  N8  1  0.60895471  0.72794448  0.60255844  1
  N  N9  1  0.39527295  0.73130076  0.41826380  1
  N  N10  1  0.10892877  0.77205113  0.89746938  1
  N  N11  1  0.89524729  0.76870637  0.08173315  1
  H  H12  1  0.46461929  0.41557510  0.52677947  1
  H  H13  1  0.65287050  0.30522721  0.69208965  1
  H  H14  1  0.63675601  0.12946002  0.60480503  1
  H  H15  1  0.33987930  0.29042407  0.32247413  1
  H  H16  1  0.44071992  0.12200021  0.35789929  1
  H  H17  1  0.96456954  0.08445026  0.97319307  1
  H  H18  1  0.15285135  0.19475919  0.80792047  1
  H  H19  1  0.13679998  0.37051882  0.89522709  1
  H  H20  1  0.83990289  0.20960731  0.17751552  1
  H  H21  1  0.94080254  0.37800453  0.14213166  1
  H  H22  1  0.51734554  0.91616150  0.49577160  1
  H  H23  1  0.69236692  0.79232336  0.66204244  1
  H  H24  1  0.61484601  0.61491781  0.62156137  1
  H  H25  1  0.32815142  0.79669902  0.34212245  1
  H  H26  1  0.37550330  0.61873558  0.41173530  1
  H  H27  1  0.01724132  0.58382615  0.00416281  1
  H  H28  1  0.19231179  0.70766863  0.83797483  1
  H  H29  1  0.11486817  0.88508171  0.87852987  1
  H  H30  1  0.82809486  0.70330510  0.15783470  1
  H  H31  1  0.87552516  0.88127521  0.08831418  1
  Ni  Ni32  1  0.39736585  0.99642804  0.08473037  1
  Ni  Ni33  1  0.89738769  0.50356813  0.41529285  1
  Hf  Hf34  1  0.00815071  0.00175977  0.47829622  1
  Hf  Hf35  1  0.50812491  0.49824039  0.02169715  1
  Cl  Cl36  1  0.49739179  0.21762337  0.01218154  1
  Cl  Cl37  1  0.18027895  0.99427490  0.23689322  1
  Cl  Cl38  1  0.75652348  0.01360966  0.31422115  1
  Cl  Cl39  1  0.99742485  0.28237958  0.48784205  1
  Cl  Cl40  1  0.24577255  0.01260326  0.65756177  1
  Cl  Cl41  1  0.83323146  0.98650396  0.72326610  1
  Cl  Cl42  1  0.49944918  0.77670773  0.02161695  1
  Cl  Cl43  1  0.68028640  0.50572766  0.26310336  1
  Cl  Cl44  1  0.25650995  0.48641077  0.18575065  1
  Cl  Cl45  1  0.99946250  0.72329767  0.47838134  1
  Cl  Cl46  1  0.33320349  0.51349740  0.77670049  1
  Cl  Cl47  1  0.74573596  0.48738410  0.84245250  1
