# generated using pymatgen
data_ZrNiH10C2(N2Cl3)2
_symmetry_space_group_name_H-M   'P 1'
_cell_length_a   8.12026888
_cell_length_b   8.95622379
_cell_length_c   8.50189522
_cell_angle_alpha   89.51722474
_cell_angle_beta   90.01153189
_cell_angle_gamma   90.00661995
_symmetry_Int_Tables_number   1
_chemical_formula_structural   ZrNiH10C2(N2Cl3)2
_chemical_formula_sum   'Zr2 Ni2 H20 C4 N8 Cl12'
_cell_volume   618.29490275
_cell_formula_units_Z   2
loop_
 _symmetry_equiv_pos_site_id
 _symmetry_equiv_pos_as_xyz
  1  'x, y, z'
loop_
 _atom_site_type_symbol
 _atom_site_label
 _atom_site_symmetry_multiplicity
 _atom_site_fract_x
 _atom_site_fract_y
 _atom_site_fract_z
 _atom_site_occupancy
  C  C0  1  0.48597777  0.29965472  0.51418176  1
  C  C1  1  0.98587867  0.20038515  0.98583474  1
  C  C2  1  0.51139361  0.78658368  0.50263976  1
  C  C3  1  0.01137837  0.71344092  0.99739089  1
  N  N4  1  0.59613622  0.24897311  0.61328040  1
  N  N5  1  0.42612067  0.22923494  0.39287376  1
  N  N6  1  0.09611015  0.25097992  0.88678688  1
  N  N7  1  0.92616185  0.27079208  0.10718184  1
  N  N8  1  0.60123985  0.72145123  0.61067419  1
  N  N9  1  0.39177530  0.72607749  0.42173675  1
  N  N10  1  0.10121595  0.77851736  0.88932831  1
  N  N11  1  0.89175754  0.77395654  0.07821649  1
  H  H12  1  0.43529968  0.40954281  0.53821170  1
  H  H13  1  0.63902184  0.31662223  0.70103157  1
  H  H14  1  0.65098828  0.14650285  0.60507361  1
  H  H15  1  0.34272349  0.28344852  0.32237238  1
  H  H16  1  0.47200321  0.13027659  0.35343936  1
  H  H17  1  0.93499635  0.09056784  0.96170372  1
  H  H18  1  0.13887819  0.18334423  0.79898670  1
  H  H19  1  0.15112663  0.35338354  0.89505918  1
  H  H20  1  0.84269581  0.21664411  0.17764719  1
  H  H21  1  0.97224920  0.36966131  0.14670207  1
  H  H22  1  0.54243694  0.90161808  0.47376468  1
  H  H23  1  0.69164828  0.78278934  0.66416413  1
  H  H24  1  0.58392566  0.61506166  0.65029204  1
  H  H25  1  0.33278838  0.78884830  0.33826562  1
  H  H26  1  0.35012279  0.62004806  0.43717280  1
  H  H27  1  0.04245691  0.59842824  0.02634904  1
  H  H28  1  0.19162752  0.71718508  0.83589207  1
  H  H29  1  0.08388729  0.88488924  0.84964637  1
  H  H30  1  0.83276892  0.71123399  0.16171722  1
  H  H31  1  0.85006898  0.87995122  0.06268341  1
  Ni  Ni32  1  0.40518088  0.99696938  0.08059152  1
  Ni  Ni33  1  0.90520338  0.50300754  0.41944062  1
  Zr  Zr34  1  0.01453131  0.00203195  0.47111741  1
  Zr  Zr35  1  0.51452464  0.49796790  0.02878743  1
  Cl  Cl36  1  0.50364551  0.21601840  0.01157201  1
  Cl  Cl37  1  0.18737159  0.99497192  0.23100559  1
  Cl  Cl38  1  0.75315538  0.01942125  0.30866696  1
  Cl  Cl39  1  0.00364969  0.28397362  0.48846242  1
  Cl  Cl40  1  0.25574958  0.00952127  0.65373679  1
  Cl  Cl41  1  0.82704520  0.98605449  0.71430188  1
  Cl  Cl42  1  0.49988218  0.77701640  0.02407568  1
  Cl  Cl43  1  0.68737870  0.50505358  0.26895527  1
  Cl  Cl44  1  0.25319224  0.48054757  0.19129780  1
  Cl  Cl45  1  0.99985347  0.72300649  0.47588704  1
  Cl  Cl46  1  0.32704144  0.51388838  0.78565820  1
  Cl  Cl47  1  0.75575384  0.49051848  0.84624749  1
