# generated using pymatgen
data_ZnNiH10C2(N2Cl3)2
_symmetry_space_group_name_H-M   'P 1'
_cell_length_a   6.80914971
_cell_length_b   10.58202885
_cell_length_c   8.46452200
_cell_angle_alpha   89.37263904
_cell_angle_beta   90.00767691
_cell_angle_gamma   90.01094483
_symmetry_Int_Tables_number   1
_chemical_formula_structural   ZnNiH10C2(N2Cl3)2
_chemical_formula_sum   'Zn2 Ni2 H20 C4 N8 Cl12'
_cell_volume   609.87132766
_cell_formula_units_Z   2
loop_
 _symmetry_equiv_pos_site_id
 _symmetry_equiv_pos_as_xyz
  1  'x, y, z'
loop_
 _atom_site_type_symbol
 _atom_site_label
 _atom_site_symmetry_multiplicity
 _atom_site_fract_x
 _atom_site_fract_y
 _atom_site_fract_z
 _atom_site_occupancy
  C  C0  1  0.46592231  0.29360726  0.49503805  1
  C  C1  1  0.96612555  0.20638898  0.00491603  1
  C  C2  1  0.53843359  0.79275774  0.52481952  1
  C  C3  1  0.03849465  0.70723720  0.97524126  1
  N  N4  1  0.53144262  0.25724520  0.63369452  1
  N  N5  1  0.44521687  0.22097809  0.37167970  1
  N  N6  1  0.03146291  0.24287105  0.86627402  1
  N  N7  1  0.94497431  0.27900136  0.12824845  1
  N  N8  1  0.55760799  0.71710288  0.64679224  1
  N  N9  1  0.45945419  0.76130740  0.38942673  1
  N  N10  1  0.05751386  0.78289364  0.85323052  1
  N  N11  1  0.95949699  0.73863520  0.11060473  1
  H  H12  1  0.42422541  0.39225872  0.48049046  1
  H  H13  1  0.54907571  0.32182505  0.72121876  1
  H  H14  1  0.57114160  0.16639365  0.66081252  1
  H  H15  1  0.39422057  0.25720974  0.26734691  1
  H  H16  1  0.48422351  0.12819456  0.37253417  1
  H  H17  1  0.92499788  0.10763689  0.01952803  1
  H  H18  1  0.04948450  0.17829978  0.77879727  1
  H  H19  1  0.07071472  0.33380427  0.83912367  1
  H  H20  1  0.89413676  0.24267133  0.23257332  1
  H  H21  1  0.98330819  0.37190526  0.12732429  1
  H  H22  1  0.59247550  0.88900405  0.53659108  1
  H  H23  1  0.61293747  0.75202380  0.74955108  1
  H  H24  1  0.50370691  0.62694215  0.64887229  1
  H  H25  1  0.45295130  0.82534788  0.29871899  1
  H  H26  1  0.40076970  0.67415570  0.36940020  1
  H  H27  1  0.09270457  0.61104401  0.96348830  1
  H  H28  1  0.11289515  0.74800563  0.75049231  1
  H  H29  1  0.00346169  0.87300481  0.85112596  1
  H  H30  1  0.95318589  0.67462222  0.20134891  1
  H  H31  1  0.90071541  0.82574307  0.13063035  1
  Ni  Ni32  1  0.49679458  0.98133189  0.00472140  1
  Ni  Ni33  1  0.99673404  0.51866897  0.49527888  1
  Zn  Zn34  1  0.06929767  0.94944636  0.41656484  1
  Zn  Zn35  1  0.56921680  0.55058097  0.08349270  1
  Cl  Cl36  1  0.48671074  0.18433875  0.99811008  1
  Cl  Cl37  1  0.24313960  0.98211521  0.17226103  1
  Cl  Cl38  1  0.78421089  0.00660140  0.30891620  1
  Cl  Cl39  1  0.98673569  0.31564082  0.50182778  1
  Cl  Cl40  1  0.22006159  0.01540375  0.62801886  1
  Cl  Cl41  1  0.71108476  0.98514805  0.81369597  1
  Cl  Cl42  1  0.50521076  0.76853448  0.01345069  1
  Cl  Cl43  1  0.74300127  0.51780532  0.32782326  1
  Cl  Cl44  1  0.28412512  0.49334707  0.19105220  1
  Cl  Cl45  1  0.00513830  0.73146084  0.48655728  1
  Cl  Cl46  1  0.21105119  0.51489826  0.68630633  1
  Cl  Cl47  1  0.72002803  0.48462228  0.87209261  1
