# generated using pymatgen
data_CuBiH10C2(N2Cl3)2
_symmetry_space_group_name_H-M   'P 1'
_cell_length_a   7.99862562
_cell_length_b   9.78509357
_cell_length_c   8.11917866
_cell_angle_alpha   89.85857771
_cell_angle_beta   90.00453952
_cell_angle_gamma   89.99347910
_symmetry_Int_Tables_number   1
_chemical_formula_structural   CuBiH10C2(N2Cl3)2
_chemical_formula_sum   'Cu2 Bi2 H20 C4 N8 Cl12'
_cell_volume   635.46425089
_cell_formula_units_Z   2
loop_
 _symmetry_equiv_pos_site_id
 _symmetry_equiv_pos_as_xyz
  1  'x, y, z'
loop_
 _atom_site_type_symbol
 _atom_site_label
 _atom_site_symmetry_multiplicity
 _atom_site_fract_x
 _atom_site_fract_y
 _atom_site_fract_z
 _atom_site_occupancy
  C  C0  1  0.49668836  0.29600629  0.49820219  1
  C  C1  1  0.99675824  0.20397607  0.00179919  1
  C  C2  1  0.50404368  0.79204213  0.50129173  1
  C  C3  1  0.00404323  0.70797745  0.99869671  1
  N  N4  1  0.59916631  0.23681662  0.60156761  1
  N  N5  1  0.39955897  0.23480815  0.39171157  1
  N  N6  1  0.09922828  0.26320396  0.89847729  1
  N  N7  1  0.89961431  0.26512809  0.10827296  1
  N  N8  1  0.60861838  0.73224002  0.60191827  1
  N  N9  1  0.39832832  0.73167033  0.40208018  1
  N  N10  1  0.10861203  0.76777304  0.89807014  1
  N  N11  1  0.89833617  0.76833523  0.09793464  1
  H  H12  1  0.49149202  0.40688542  0.50100046  1
  H  H13  1  0.67074756  0.29661003  0.67718893  1
  H  H14  1  0.61085031  0.13364819  0.61503232  1
  H  H15  1  0.32080368  0.29302837  0.32098295  1
  H  H16  1  0.39530618  0.13158052  0.37663717  1
  H  H17  1  0.99161735  0.09309900  0.99895586  1
  H  H18  1  0.17081421  0.20342111  0.82280470  1
  H  H19  1  0.11087501  0.36637661  0.88501712  1
  H  H20  1  0.82087257  0.20686566  0.17901444  1
  H  H21  1  0.89523921  0.36835976  0.12337152  1
  H  H22  1  0.50559460  0.90304839  0.49903804  1
  H  H23  1  0.68275177  0.79214338  0.67500923  1
  H  H24  1  0.62174981  0.62909186  0.61356108  1
  H  H25  1  0.32330027  0.79100966  0.32889302  1
  H  H26  1  0.37856139  0.62892573  0.39861939  1
  H  H27  1  0.00559035  0.59697105  0.00091934  1
  H  H28  1  0.18270797  0.70786462  0.82495351  1
  H  H29  1  0.12171548  0.87092475  0.88640985  1
  H  H30  1  0.82335278  0.70899557  0.17112339  1
  H  H31  1  0.87857466  0.87108535  0.10146955  1
  Cu  Cu32  1  0.48190097  0.99886848  0.08165041  1
  Cu  Cu33  1  0.98256891  0.50117349  0.41776312  1
  Bi  Bi34  1  0.00035148  0.00089230  0.49442773  1
  Bi  Bi35  1  0.50041460  0.49916442  0.00568299  1
  Cl  Cl36  1  0.50055532  0.21703235  0.98996703  1
  Cl  Cl37  1  0.21637386  0.98231825  0.21807260  1
  Cl  Cl38  1  0.71618582  0.01531448  0.28511245  1
  Cl  Cl39  1  0.00039532  0.28302362  0.51013257  1
  Cl  Cl40  1  0.26443387  0.01613176  0.69097500  1
  Cl  Cl41  1  0.80387976  0.98610832  0.75671139  1
  Cl  Cl42  1  0.50833989  0.78089703  0.99207087  1
  Cl  Cl43  1  0.71648570  0.51765996  0.28195912  1
  Cl  Cl44  1  0.21607743  0.48468554  0.21503491  1
  Cl  Cl45  1  0.00825977  0.71911057  0.50796549  1
  Cl  Cl46  1  0.30391916  0.51389896  0.74337142  1
  Cl  Cl47  1  0.76436400  0.48387103  0.80918330  1
