# generated using pymatgen
data_CuH10AuC2(N2Cl3)2
_symmetry_space_group_name_H-M   'P 1'
_cell_length_a   7.25197272
_cell_length_b   10.38457994
_cell_length_c   8.28085632
_cell_angle_alpha   90.13057599
_cell_angle_beta   90.00419278
_cell_angle_gamma   89.99323284
_symmetry_Int_Tables_number   1
_chemical_formula_structural   CuH10AuC2(N2Cl3)2
_chemical_formula_sum   'Cu2 H20 Au2 C4 N8 Cl12'
_cell_volume   623.61881967
_cell_formula_units_Z   2
loop_
 _symmetry_equiv_pos_site_id
 _symmetry_equiv_pos_as_xyz
  1  'x, y, z'
loop_
 _atom_site_type_symbol
 _atom_site_label
 _atom_site_symmetry_multiplicity
 _atom_site_fract_x
 _atom_site_fract_y
 _atom_site_fract_z
 _atom_site_occupancy
  C  C0  1  0.49755187  0.28758921  0.49825032  1
  C  C1  1  0.99770738  0.21242074  0.00172955  1
  C  C2  1  0.50351074  0.79039459  0.50230993  1
  C  C3  1  0.00323030  0.70959819  0.99770561  1
  N  N4  1  0.58332063  0.23186024  0.61827090  1
  N  N5  1  0.41427619  0.22894767  0.37877549  1
  N  N6  1  0.08344563  0.26816517  0.88171471  1
  N  N7  1  0.91440777  0.27105232  0.12119475  1
  N  N8  1  0.58223102  0.73169838  0.62384105  1
  N  N9  1  0.41960397  0.73517727  0.38059325  1
  N  N10  1  0.08201932  0.76826195  0.87620266  1
  N  N11  1  0.91941856  0.76485172  0.11944260  1
  H  H12  1  0.49505814  0.39242913  0.49775147  1
  H  H13  1  0.64883356  0.28861550  0.70134235  1
  H  H14  1  0.59306883  0.13461933  0.63334879  1
  H  H15  1  0.34699115  0.28374281  0.29504006  1
  H  H16  1  0.40880841  0.13148165  0.36418669  1
  H  H17  1  0.99528474  0.10758324  0.00224359  1
  H  H18  1  0.14898006  0.21140337  0.79865235  1
  H  H19  1  0.09312724  0.36539353  0.86662754  1
  H  H20  1  0.84714646  0.21626642  0.20490963  1
  H  H21  1  0.90887008  0.36853506  0.13575694  1
  H  H22  1  0.50848848  0.89513241  0.50260652  1
  H  H23  1  0.64482125  0.78615294  0.71111894  1
  H  H24  1  0.58943609  0.63408337  0.63457594  1
  H  H25  1  0.36103842  0.79194111  0.29364406  1
  H  H26  1  0.40384980  0.63799063  0.36952599  1
  H  H27  1  0.00804238  0.60485377  0.99733696  1
  H  H28  1  0.14454916  0.71379591  0.78891994  1
  H  H29  1  0.08937880  0.86588488  0.86554606  1
  H  H30  1  0.86080090  0.70809058  0.20637108  1
  H  H31  1  0.90381430  0.86203450  0.13058093  1
  Cu  Cu32  1  0.49964785  0.00783504  0.99825327  1
  Cu  Cu33  1  0.99963898  0.49218388  0.50169891  1
  Au  Au34  1  0.00021519  0.02508366  0.49853266  1
  Au  Au35  1  0.50015946  0.47491608  0.00148898  1
  Cl  Cl36  1  0.49954833  0.24519093  0.99923854  1
  Cl  Cl37  1  0.27715052  0.98095137  0.16558606  1
  Cl  Cl38  1  0.75809544  0.02420374  0.30961319  1
  Cl  Cl39  1  0.99951035  0.25482461  0.50084506  1
  Cl  Cl40  1  0.24283453  0.02419034  0.68675333  1
  Cl  Cl41  1  0.72249276  0.98162132  0.83086644  1
  Cl  Cl42  1  0.49956568  0.70153615  0.00215955  1
  Cl  Cl43  1  0.77709789  0.51902501  0.33438981  1
  Cl  Cl44  1  0.25804697  0.47586273  0.19037270  1
  Cl  Cl45  1  0.99969002  0.79844635  0.49776538  1
  Cl  Cl46  1  0.22244494  0.51840420  0.66912988  1
  Cl  Cl47  1  0.74276879  0.47573998  0.81329434  1
