# generated using pymatgen
data_CuH10IrC2(N2Cl3)2
_symmetry_space_group_name_H-M   'P 1'
_cell_length_a   8.35779946
_cell_length_b   8.25509186
_cell_length_c   8.61927600
_cell_angle_alpha   89.94726503
_cell_angle_beta   89.94725822
_cell_angle_gamma   92.06317597
_symmetry_Int_Tables_number   1
_chemical_formula_structural   CuH10IrC2(N2Cl3)2
_chemical_formula_sum   'Cu2 H20 Ir2 C4 N8 Cl12'
_cell_volume   594.29576384
_cell_formula_units_Z   2
loop_
 _symmetry_equiv_pos_site_id
 _symmetry_equiv_pos_as_xyz
  1  'x, y, z'
loop_
 _atom_site_type_symbol
 _atom_site_label
 _atom_site_symmetry_multiplicity
 _atom_site_fract_x
 _atom_site_fract_y
 _atom_site_fract_z
 _atom_site_occupancy
  C  C0  1  0.50725006  0.31232684  0.50327462  1
  C  C1  1  0.98891380  0.18611726  0.00401678  1
  C  C2  1  0.50487931  0.76733630  0.53170889  1
  C  C3  1  0.00107905  0.73729137  0.03286284  1
  N  N4  1  0.61038576  0.25078536  0.59830937  1
  N  N5  1  0.42776606  0.23310116  0.39485123  1
  N  N6  1  0.07409416  0.26164963  0.89682754  1
  N  N7  1  0.89043579  0.25337604  0.10010950  1
  N  N8  1  0.64212491  0.69991815  0.55320617  1
  N  N9  1  0.41173371  0.74126792  0.41083524  1
  N  N10  1  0.08537551  0.76159326  0.90565480  1
  N  N11  1  0.85941289  0.79469389  0.05661729  1
  H  H12  1  0.48235430  0.43950330  0.51803690  1
  H  H13  1  0.66198264  0.32290576  0.68350409  1
  H  H14  1  0.64912247  0.13539246  0.58753561  1
  H  H15  1  0.35339065  0.29374518  0.32195430  1
  H  H16  1  0.43720489  0.11182022  0.38034119  1
  H  H17  1  0.00369970  0.05675400  0.01642229  1
  H  H18  1  0.14466146  0.19732368  0.82312887  1
  H  H19  1  0.07652133  0.38425045  0.88649307  1
  H  H20  1  0.83451170  0.18312546  0.18433546  1
  H  H21  1  0.85877552  0.37123020  0.09077421  1
  H  H22  1  0.46258318  0.84964744  0.62058394  1
  H  H23  1  0.71124024  0.73586458  0.64532143  1
  H  H24  1  0.69463823  0.63338481  0.46898134  1
  H  H25  1  0.30443381  0.79594296  0.40327304  1
  H  H26  1  0.44147845  0.66497103  0.32259124  1
  H  H27  1  0.05436985  0.66546248  0.12438266  1
  H  H28  1  0.19682927  0.71613700  0.89530028  1
  H  H29  1  0.04439155  0.82990020  0.81576604  1
  H  H30  1  0.79736961  0.76139745  0.15421199  1
  H  H31  1  0.79671968  0.84937040  0.97105581  1
  Cu  Cu32  1  0.37879653  0.00399021  0.09603689  1
  Cu  Cu33  1  0.11927519  0.49741255  0.59840738  1
  Ir  Ir34  1  0.00906746  0.00040210  0.49769687  1
  Ir  Ir35  1  0.48969368  0.49967705  0.99873310  1
  Cl  Cl36  1  0.50119750  0.21230072  0.98125663  1
  Cl  Cl37  1  0.16788356  0.99107766  0.26043422  1
  Cl  Cl38  1  0.76939311  0.99642891  0.34699787  1
  Cl  Cl39  1  0.99888535  0.28825963  0.48266552  1
  Cl  Cl40  1  0.23750452  0.01808848  0.65843745  1
  Cl  Cl41  1  0.84306058  0.98831095  0.71799757  1
  Cl  Cl42  1  0.49065800  0.79123937  0.98561273  1
  Cl  Cl43  1  0.65421007  0.50992825  0.21944778  1
  Cl  Cl44  1  0.26178499  0.47980667  0.16075635  1
  Cl  Cl45  1  0.00841940  0.70872191  0.48363911  1
  Cl  Cl46  1  0.33094581  0.51155085  0.76174153  1
  Cl  Cl47  1  0.72951404  0.50528147  0.84797574  1
