# generated using pymatgen
data_CuSbH10C2(N2Cl3)2
_symmetry_space_group_name_H-M   'P 1'
_cell_length_a   7.58612404
_cell_length_b   10.57467640
_cell_length_c   8.16106944
_cell_angle_alpha   91.03236380
_cell_angle_beta   89.99842277
_cell_angle_gamma   89.99563233
_symmetry_Int_Tables_number   1
_chemical_formula_structural   CuSbH10C2(N2Cl3)2
_chemical_formula_sum   'Cu2 Sb2 H20 C4 N8 Cl12'
_cell_volume   654.58130270
_cell_formula_units_Z   2
loop_
 _symmetry_equiv_pos_site_id
 _symmetry_equiv_pos_as_xyz
  1  'x, y, z'
loop_
 _atom_site_type_symbol
 _atom_site_label
 _atom_site_symmetry_multiplicity
 _atom_site_fract_x
 _atom_site_fract_y
 _atom_site_fract_z
 _atom_site_occupancy
  C  C0  1  0.49981133  0.29005969  0.50348268  1
  C  C1  1  0.99984901  0.20991621  0.99646937  1
  C  C2  1  0.50418288  0.79146832  0.50306562  1
  C  C3  1  0.00414230  0.70854400  0.99693559  1
  N  N4  1  0.58351414  0.23432060  0.62218886  1
  N  N5  1  0.41257217  0.23337379  0.38470271  1
  N  N6  1  0.08361568  0.26567125  0.87780284  1
  N  N7  1  0.91265669  0.26659538  0.11528620  1
  N  N8  1  0.58957317  0.73128348  0.61711735  1
  N  N9  1  0.40568949  0.73995224  0.38848811  1
  N  N10  1  0.08960030  0.76871754  0.88292022  1
  N  N11  1  0.90571041  0.76008022  0.11155512  1
  H  H12  1  0.50178474  0.39307680  0.50392400  1
  H  H13  1  0.65283913  0.28916961  0.70382767  1
  H  H14  1  0.58985766  0.13867594  0.63599915  1
  H  H15  1  0.35013764  0.28644546  0.29911331  1
  H  H16  1  0.40726564  0.13761043  0.36809943  1
  H  H17  1  0.00173069  0.10690191  0.99593086  1
  H  H18  1  0.15292457  0.21082074  0.79614217  1
  H  H19  1  0.09004833  0.36132187  0.86407083  1
  H  H20  1  0.85013137  0.21351166  0.20081306  1
  H  H21  1  0.90742079  0.36235261  0.13196531  1
  H  H22  1  0.51695295  0.89399875  0.50327215  1
  H  H23  1  0.66021276  0.78363739  0.70080309  1
  H  H24  1  0.58853969  0.63557174  0.62879997  1
  H  H25  1  0.34419756  0.79726017  0.30705082  1
  H  H26  1  0.37872515  0.64543702  0.37927582  1
  H  H27  1  0.01678453  0.60600873  0.99664907  1
  H  H28  1  0.16019660  0.71635035  0.79920976  1
  H  H29  1  0.08870245  0.86443856  0.87130833  1
  H  H30  1  0.84415216  0.70277818  0.19295409  1
  H  H31  1  0.87884548  0.85461331  0.12083964  1
  Cu  Cu32  1  0.62907047  0.05679398  0.00581198  1
  Cu  Cu33  1  0.12908044  0.44318570  0.49420479  1
  Sb  Sb34  1  0.99633133  0.99734089  0.49210917  1
  Sb  Sb35  1  0.49635994  0.50268428  0.00791108  1
  Cl  Cl36  1  0.47434586  0.23436633  0.00114151  1
  Cl  Cl37  1  0.19615132  0.99032282  0.24541700  1
  Cl  Cl38  1  0.70505132  0.00775269  0.26471067  1
  Cl  Cl39  1  0.97427521  0.26566346  0.49887765  1
  Cl  Cl40  1  0.25482468  0.01488508  0.68851159  1
  Cl  Cl41  1  0.76225705  0.97759939  0.78472554  1
  Cl  Cl42  1  0.49578627  0.73672312  0.00263948  1
  Cl  Cl43  1  0.69617729  0.50968702  0.25457483  1
  Cl  Cl44  1  0.20503115  0.49228129  0.23529415  1
  Cl  Cl45  1  0.99576804  0.76330702  0.49738268  1
  Cl  Cl46  1  0.26231569  0.52241071  0.71524961  1
  Cl  Cl47  1  0.75482583  0.48509526  0.81147983  1
