# generated using pymatgen
data_CuSnH10C2(N2Cl3)2
_symmetry_space_group_name_H-M   'P 1'
_cell_length_a   7.95667087
_cell_length_b   9.90345861
_cell_length_c   8.10464835
_cell_angle_alpha   90.73570610
_cell_angle_beta   90.73401842
_cell_angle_gamma   89.86814079
_symmetry_Int_Tables_number   1
_chemical_formula_structural   CuSnH10C2(N2Cl3)2
_chemical_formula_sum   'Cu2 Sn2 H20 C4 N8 Cl12'
_cell_volume   638.52811587
_cell_formula_units_Z   2
loop_
 _symmetry_equiv_pos_site_id
 _symmetry_equiv_pos_as_xyz
  1  'x, y, z'
loop_
 _atom_site_type_symbol
 _atom_site_label
 _atom_site_symmetry_multiplicity
 _atom_site_fract_x
 _atom_site_fract_y
 _atom_site_fract_z
 _atom_site_occupancy
  C  C0  1  0.49545215  0.29823916  0.50022348  1
  C  C1  1  0.99740402  0.20485956  0.99980419  1
  C  C2  1  0.50146382  0.79265756  0.50161352  1
  C  C3  1  0.00305722  0.70459516  0.99570606  1
  N  N4  1  0.59403738  0.24031883  0.60845370  1
  N  N5  1  0.39992019  0.23703146  0.39006073  1
  N  N6  1  0.09752377  0.26281913  0.89554296  1
  N  N7  1  0.90043057  0.26612744  0.10627311  1
  N  N8  1  0.60165598  0.72992874  0.60441011  1
  N  N9  1  0.39751677  0.73664143  0.39485156  1
  N  N10  1  0.10481636  0.76750374  0.89739058  1
  N  N11  1  0.89830228  0.76067266  0.09905287  1
  H  H12  1  0.49240305  0.40801589  0.50176251  1
  H  H13  1  0.66570880  0.30049462  0.68554470  1
  H  H14  1  0.60829933  0.13848873  0.61938586  1
  H  H15  1  0.32409428  0.29400984  0.31516943  1
  H  H16  1  0.39055192  0.13484303  0.37784506  1
  H  H17  1  0.99435329  0.09509911  0.99773652  1
  H  H18  1  0.16722585  0.20310258  0.81853334  1
  H  H19  1  0.10675714  0.36468676  0.88018552  1
  H  H20  1  0.82853326  0.20928673  0.18214045  1
  H  H21  1  0.89817224  0.36810765  0.12465877  1
  H  H22  1  0.50513282  0.90241317  0.50538398  1
  H  H23  1  0.67825371  0.78683702  0.67972182  1
  H  H24  1  0.61386551  0.62769393  0.61161356  1
  H  H25  1  0.32264661  0.79733881  0.32380690  1
  H  H26  1  0.38150911  0.63500331  0.38193394  1
  H  H27  1  0.00623977  0.59498422  0.99083044  1
  H  H28  1  0.17652960  0.70990202  0.81926372  1
  H  H29  1  0.11429718  0.86962841  0.88968411  1
  H  H30  1  0.82739428  0.70001166  0.17226219  1
  H  H31  1  0.88480358  0.86229965  0.11428106  1
  Cu  Cu32  1  0.54528014  0.00094434  0.04033869  1
  Cu  Cu33  1  0.10564226  0.49710877  0.48439292  1
  Sn  Sn34  1  0.99565918  0.99967777  0.49711833  1
  Sn  Sn35  1  0.51047949  0.49992708  0.00941939  1
  Cl  Cl36  1  0.49746615  0.21251562  0.00004117  1
  Cl  Cl37  1  0.18471970  0.98885384  0.24882409  1
  Cl  Cl38  1  0.73617542  0.01134373  0.29525395  1
  Cl  Cl39  1  0.99342518  0.25350454  0.49982674  1
  Cl  Cl40  1  0.24750545  0.01094744  0.68347115  1
  Cl  Cl41  1  0.80244498  0.98962965  0.74476120  1
  Cl  Cl42  1  0.50124723  0.78841072  0.99842123  1
  Cl  Cl43  1  0.70205809  0.51569031  0.26978431  1
  Cl  Cl44  1  0.19002906  0.48285948  0.22637741  1
  Cl  Cl45  1  0.99603813  0.74686103  0.49405454  1
  Cl  Cl46  1  0.25216225  0.51363601  0.71609570  1
  Cl  Cl47  1  0.76133479  0.48451059  0.80679717  1
