# generated using pymatgen
data_YCuH12C2(I3N)2
_symmetry_space_group_name_H-M   'P 1'
_cell_length_a   8.78455290
_cell_length_b   10.66181812
_cell_length_c   8.79230648
_cell_angle_alpha   90.36234831
_cell_angle_beta   89.99467978
_cell_angle_gamma   89.99882978
_symmetry_Int_Tables_number   1
_chemical_formula_structural   YCuH12C2(I3N)2
_chemical_formula_sum   'Y2 Cu2 H24 C4 I12 N4'
_cell_volume   823.46484473
_cell_formula_units_Z   2
loop_
 _symmetry_equiv_pos_site_id
 _symmetry_equiv_pos_as_xyz
  1  'x, y, z'
loop_
 _atom_site_type_symbol
 _atom_site_label
 _atom_site_symmetry_multiplicity
 _atom_site_fract_x
 _atom_site_fract_y
 _atom_site_fract_z
 _atom_site_occupancy
  C  C0  1  0.46472046  0.25137031  0.43895540  1
  C  C1  1  0.96595178  0.24879501  0.06088877  1
  C  C2  1  0.52360903  0.74775693  0.56323713  1
  C  C3  1  0.02483712  0.75211066  0.93704912  1
  N  N4  1  0.55330064  0.24980847  0.58310838  1
  N  N5  1  0.05375837  0.25010852  0.91624322  1
  N  N6  1  0.43300884  0.75081570  0.42032761  1
  N  N7  1  0.93363420  0.74920252  0.07961858  1
  H  H8  1  0.54417794  0.25352488  0.34337369  1
  H  H9  1  0.39400978  0.16692949  0.43326286  1
  H  H10  1  0.39246673  0.33506410  0.43817525  1
  H  H11  1  0.62320569  0.17149188  0.59059543  1
  H  H12  1  0.62309641  0.32791804  0.59502120  1
  H  H13  1  0.48282127  0.24812403  0.67795648  1
  H  H14  1  0.04595530  0.24667030  0.15600869  1
  H  H15  1  0.89359405  0.16515755  0.06222296  1
  H  H16  1  0.89542922  0.33331543  0.06686025  1
  H  H17  1  0.12336654  0.17193873  0.90401245  1
  H  H18  1  0.12377393  0.32836825  0.90814349  1
  H  H19  1  0.98276637  0.25176021  0.82179108  1
  H  H20  1  0.44521041  0.74750694  0.65975957  1
  H  H21  1  0.59401027  0.66302861  0.56316927  1
  H  H22  1  0.59609420  0.83114206  0.56820390  1
  H  H23  1  0.36660054  0.83120535  0.41247311  1
  H  H24  1  0.35933647  0.67490242  0.41197540  1
  H  H25  1  0.50175382  0.74803017  0.32426991  1
  H  H26  1  0.94685653  0.75236393  0.84022716  1
  H  H27  1  0.09541122  0.83675454  0.93734085  1
  H  H28  1  0.09719820  0.66863948  0.93245268  1
  H  H29  1  0.86008858  0.82516898  0.08761681  1
  H  H30  1  0.86707330  0.66886361  0.08722888  1
  H  H31  1  0.00201384  0.75193802  0.17594742  1
  Cu  Cu32  1  0.63084538  0.00397372  0.02419195  1
  Cu  Cu33  1  0.13069437  0.49620335  0.47632276  1
  Y  Y34  1  0.01181611  0.99973564  0.49579782  1
  Y  Y35  1  0.51211905  0.50028737  0.00457036  1
  I  I36  1  0.47934343  0.21808573  0.00546805  1
  I  I37  1  0.19645637  0.98859110  0.21963712  1
  I  I38  1  0.71356633  0.99194620  0.30768612  1
  I  I39  1  0.97926489  0.28194274  0.49442732  1
  I  I40  1  0.27615351  0.00799861  0.69960766  1
  I  I41  1  0.79322143  0.01199982  0.77310334  1
  I  I42  1  0.49383129  0.78211074  0.99522834  1
  I  I43  1  0.69651164  0.51144592  0.28079618  1
  I  I44  1  0.21404352  0.50824134  0.19295273  1
  I  I45  1  0.99349981  0.71787906  0.50492038  1
  I  I46  1  0.29314622  0.48784975  0.72738400  1
  I  I47  1  0.77637936  0.49201207  0.80068550  1
