# generated using pymatgen
data_InCuH10C2(N2Cl3)2
_symmetry_space_group_name_H-M   'P 1'
_cell_length_a   7.99392471
_cell_length_b   9.79811467
_cell_length_c   7.97855822
_cell_angle_alpha   90.09898963
_cell_angle_beta   89.99863936
_cell_angle_gamma   89.99887100
_symmetry_Int_Tables_number   1
_chemical_formula_structural   InCuH10C2(N2Cl3)2
_chemical_formula_sum   'In2 Cu2 H20 C4 N8 Cl12'
_cell_volume   624.92275927
_cell_formula_units_Z   2
loop_
 _symmetry_equiv_pos_site_id
 _symmetry_equiv_pos_as_xyz
  1  'x, y, z'
loop_
 _atom_site_type_symbol
 _atom_site_label
 _atom_site_symmetry_multiplicity
 _atom_site_fract_x
 _atom_site_fract_y
 _atom_site_fract_z
 _atom_site_occupancy
  C  C0  1  0.49750956  0.29362342  0.49705829  1
  C  C1  1  0.99751283  0.20638950  0.00296255  1
  C  C2  1  0.50290390  0.79375009  0.50356067  1
  C  C3  1  0.00287322  0.70625141  0.99643588  1
  N  N4  1  0.60001324  0.23456675  0.60194765  1
  N  N5  1  0.39892962  0.23257908  0.38978017  1
  N  N6  1  0.10004780  0.26543822  0.89806922  1
  N  N7  1  0.89897592  0.26742760  0.11022303  1
  N  N8  1  0.60807041  0.73290033  0.60412652  1
  N  N9  1  0.39477633  0.73450425  0.40435657  1
  N  N10  1  0.10804414  0.76711110  0.89586497  1
  N  N11  1  0.89474971  0.76548982  0.09563792  1
  H  H12  1  0.49354819  0.40441414  0.49921260  1
  H  H13  1  0.67106531  0.29440075  0.67944628  1
  H  H14  1  0.61540364  0.13170720  0.61179560  1
  H  H15  1  0.32402123  0.29140883  0.31513726  1
  H  H16  1  0.38961537  0.12952915  0.37628145  1
  H  H17  1  0.99353250  0.09558993  0.00077083  1
  H  H18  1  0.17108771  0.20559694  0.82055502  1
  H  H19  1  0.11545992  0.36829106  0.88824245  1
  H  H20  1  0.82402870  0.20860438  0.18487793  1
  H  H21  1  0.88966970  0.37048393  0.12376049  1
  H  H22  1  0.50579784  0.90458836  0.50224064  1
  H  H23  1  0.68574401  0.79183494  0.67606718  1
  H  H24  1  0.61706856  0.62984061  0.61794877  1
  H  H25  1  0.31981529  0.79417873  0.33073903  1
  H  H26  1  0.38039606  0.63160959  0.39354192  1
  H  H27  1  0.00578043  0.59541212  0.99774109  1
  H  H28  1  0.18572288  0.70818333  0.82391926  1
  H  H29  1  0.11702518  0.87016819  0.88205297  1
  H  H30  1  0.81978751  0.70580872  0.16926076  1
  H  H31  1  0.88035484  0.86838619  0.10646437  1
  Cu  Cu32  1  0.48699149  -0.00001149  1.00073402  1
  Cu  Cu33  1  0.98713553  0.50000895  0.49929884  1
  In  In34  1  0.00035092  0.00005697  0.49759039  1
  In  In35  1  0.50032705  0.49994124  0.00241158  1
  Cl  Cl36  1  0.50234825  0.21972641  0.99716903  1
  Cl  Cl37  1  0.18979441  0.98391230  0.24495569  1
  Cl  Cl38  1  0.74875314  0.01358277  0.30901474  1
  Cl  Cl39  1  0.00229660  0.28026519  0.50285571  1
  Cl  Cl40  1  0.25277924  0.01589858  0.68656128  1
  Cl  Cl41  1  0.81264497  0.98642869  0.74981695  1
  Cl  Cl42  1  0.50169905  0.78020150  0.00218801  1
  Cl  Cl43  1  0.68975804  0.51609037  0.25503129  1
  Cl  Cl44  1  0.24871880  0.48642317  0.19099418  1
  Cl  Cl45  1  0.00170385  0.71979838  0.49778408  1
  Cl  Cl46  1  0.31262965  0.51357467  0.75017872  1
  Cl  Cl47  1  0.75275683  0.48409660  0.81344093  1
