# generated using pymatgen
data_CuH10RhC2(N2Cl3)2
_symmetry_space_group_name_H-M   'P 1'
_cell_length_a   7.41342386
_cell_length_b   10.21327423
_cell_length_c   7.88966800
_cell_angle_alpha   95.97381547
_cell_angle_beta   89.99562998
_cell_angle_gamma   90.00564091
_symmetry_Int_Tables_number   1
_chemical_formula_structural   CuH10RhC2(N2Cl3)2
_chemical_formula_sum   'Cu2 H20 Rh2 C4 N8 Cl12'
_cell_volume   594.12484479
_cell_formula_units_Z   2
loop_
 _symmetry_equiv_pos_site_id
 _symmetry_equiv_pos_as_xyz
  1  'x, y, z'
loop_
 _atom_site_type_symbol
 _atom_site_label
 _atom_site_symmetry_multiplicity
 _atom_site_fract_x
 _atom_site_fract_y
 _atom_site_fract_z
 _atom_site_occupancy
  C  C0  1  0.54153283  0.28032288  0.50642220  1
  C  C1  1  0.04137696  0.21970900  0.99370171  1
  C  C2  1  0.51158691  0.79069533  0.52728902  1
  C  C3  1  0.01156226  0.70931038  0.97270004  1
  N  N4  1  0.56646047  0.22877144  0.64746687  1
  N  N5  1  0.41468109  0.23864718  0.39247993  1
  N  N6  1  0.06639507  0.27116560  0.85259230  1
  N  N7  1  0.91443396  0.26148014  0.10757041  1
  N  N8  1  0.56869319  0.71948183  0.64543727  1
  N  N9  1  0.38907893  0.75409775  0.41322697  1
  N  N10  1  0.06869423  0.78046060  0.85448154  1
  N  N11  1  0.88899126  0.74592804  0.08672055  1
  H  H12  1  0.62243993  0.36511299  0.48036955  1
  H  H13  1  0.65040485  0.27689714  0.73628872  1
  H  H14  1  0.49105164  0.15108590  0.67917051  1
  H  H15  1  0.43941422  0.25607027  0.26751344  1
  H  H16  1  0.35434870  0.14855811  0.40083670  1
  H  H17  1  0.12223076  0.13494682  0.01990777  1
  H  H18  1  0.15039308  0.22295105  0.76383571  1
  H  H19  1  0.99108662  0.34880773  0.82076811  1
  H  H20  1  0.93909889  0.24413520  0.23256693  1
  H  H21  1  0.85415286  0.35154162  0.09904320  1
  H  H22  1  0.57127948  0.88767744  0.52437765  1
  H  H23  1  0.66114615  0.75861788  0.73105807  1
  H  H24  1  0.51021757  0.63215638  0.66766992  1
  H  H25  1  0.34975764  0.81668276  0.32754835  1
  H  H26  1  0.33271891  0.66241335  0.39828537  1
  H  H27  1  0.07127351  0.61235001  0.97573949  1
  H  H28  1  0.16120202  0.74131337  0.76891747  1
  H  H29  1  0.01021203  0.86776160  0.83216959  1
  H  H30  1  0.84966097  0.68340368  0.17246810  1
  H  H31  1  0.83259488  0.83760151  0.10153447  1
  Cu  Cu32  1  0.71688434  0.10768406  0.03715087  1
  Cu  Cu33  1  0.21698676  0.39232702  0.46282749  1
  Rh  Rh34  1  0.97448240  0.01564552  0.48404960  1
  Rh  Rh35  1  0.47443253  0.48434344  0.01592470  1
  Cl  Cl36  1  0.47179694  0.24365211  0.01073059  1
  Cl  Cl37  1  0.16361327  0.99546560  0.24772703  1
  Cl  Cl38  1  0.71674727  0.01116638  0.28921080  1
  Cl  Cl39  1  0.97188363  0.25631886  0.48926395  1
  Cl  Cl40  1  0.23217428  0.02089529  0.65976070  1
  Cl  Cl41  1  0.78848115  0.00947204  0.76198836  1
  Cl  Cl42  1  0.46175206  0.71183083  0.02478212  1
  Cl  Cl43  1  0.66346629  0.50455454  0.25229066  1
  Cl  Cl44  1  0.21668712  0.48884385  0.21078532  1
  Cl  Cl45  1  0.96179489  0.78815500  0.47516615  1
  Cl  Cl46  1  0.28848499  0.49047770  0.73805675  1
  Cl  Cl47  1  0.73217955  0.47907577  0.84023174  1
