# generated using pymatgen
data_YCuH10C2(N2Cl3)2
_symmetry_space_group_name_H-M   'P 1'
_cell_length_a   8.08649479
_cell_length_b   9.70622971
_cell_length_c   8.07164929
_cell_angle_alpha   90.09349697
_cell_angle_beta   90.00300587
_cell_angle_gamma   89.99809630
_symmetry_Int_Tables_number   1
_chemical_formula_structural   YCuH10C2(N2Cl3)2
_chemical_formula_sum   'Y2 Cu2 H20 C4 N8 Cl12'
_cell_volume   633.53787169
_cell_formula_units_Z   2
loop_
 _symmetry_equiv_pos_site_id
 _symmetry_equiv_pos_as_xyz
  1  'x, y, z'
loop_
 _atom_site_type_symbol
 _atom_site_label
 _atom_site_symmetry_multiplicity
 _atom_site_fract_x
 _atom_site_fract_y
 _atom_site_fract_z
 _atom_site_occupancy
  C  C0  1  0.49588707  0.29510997  0.49705750  1
  C  C1  1  0.99593120  0.20488257  0.00293534  1
  C  C2  1  0.50359765  0.79517835  0.50337396  1
  C  C3  1  0.00354315  0.70482343  0.99663509  1
  N  N4  1  0.59813562  0.23535158  0.59993799  1
  N  N5  1  0.39791621  0.23401344  0.39099088  1
  N  N6  1  0.09818186  0.26465384  0.90008467  1
  N  N7  1  0.89797346  0.26598787  0.10900561  1
  N  N8  1  0.60699872  0.73428409  0.60402857  1
  N  N9  1  0.39684928  0.73515360  0.40513456  1
  N  N10  1  0.10694534  0.76572041  0.89599603  1
  N  N11  1  0.89678881  0.76485321  0.09484923  1
  H  H12  1  0.49138707  0.40693949  0.50035194  1
  H  H13  1  0.66993481  0.29592811  0.67518988  1
  H  H14  1  0.61211621  0.13141890  0.61052745  1
  H  H15  1  0.32253684  0.29408173  0.31889784  1
  H  H16  1  0.39132271  0.13011965  0.37394221  1
  H  H17  1  0.99141480  0.09307427  0.99961231  1
  H  H18  1  0.16997782  0.20407959  0.82482932  1
  H  H19  1  0.11218581  0.36857839  0.88951877  1
  H  H20  1  0.82257958  0.20592690  0.18106567  1
  H  H21  1  0.89138838  0.36987483  0.12607442  1
  H  H22  1  0.50704782  0.90702043  0.50083565  1
  H  H23  1  0.68261363  0.79459376  0.67583688  1
  H  H24  1  0.61824615  0.63023070  0.61647108  1
  H  H25  1  0.32463208  0.79540923  0.33017757  1
  H  H26  1  0.38008491  0.63132713  0.39752130  1
  H  H27  1  0.00700172  0.59298731  0.99917529  1
  H  H28  1  0.18256290  0.70541421  0.82419941  1
  H  H29  1  0.11817961  0.86976826  0.88355441  1
  H  H30  1  0.82457743  0.70459596  0.16980637  1
  H  H31  1  0.88000445  0.86867469  0.10246458  1
  Cu  Cu32  1  0.49425876  0.99996797  0.99925002  1
  Cu  Cu33  1  0.99432922  0.50003569  0.50076573  1
  Y  Y34  1  0.00155973  0.00001145  0.49748943  1
  Y  Y35  1  0.50155818  0.49998903  0.00250938  1
  Cl  Cl36  1  0.49998106  0.22347140  0.99809880  1
  Cl  Cl37  1  0.19569688  0.98340703  0.23589386  1
  Cl  Cl38  1  0.73994003  0.01372871  0.30373416  1
  Cl  Cl39  1  0.99995940  0.27653143  0.50191939  1
  Cl  Cl40  1  0.26150797  0.01646308  0.69336452  1
  Cl  Cl41  1  0.80645457  0.98622416  0.75800355  1
  Cl  Cl42  1  0.50130729  0.77650136  0.00186528  1
  Cl  Cl43  1  0.69570072  0.51658123  0.26411466  1
  Cl  Cl44  1  0.23994998  0.48629073  0.19625826  1
  Cl  Cl45  1  0.00134057  0.72350154  0.49812000  1
  Cl  Cl46  1  0.30643890  0.51378674  0.74198590  1
  Cl  Cl47  1  0.76149301  0.48351550  0.80665002  1
