# generated using pymatgen
data_CuAsH10C2(N2Cl3)2
_symmetry_space_group_name_H-M   'P 1'
_cell_length_a   7.53813384
_cell_length_b   10.50937014
_cell_length_c   8.13373310
_cell_angle_alpha   92.03648161
_cell_angle_beta   89.99739637
_cell_angle_gamma   89.98768532
_symmetry_Int_Tables_number   1
_chemical_formula_structural   CuAsH10C2(N2Cl3)2
_chemical_formula_sum   'Cu2 As2 H20 C4 N8 Cl12'
_cell_volume   643.95579132
_cell_formula_units_Z   2
loop_
 _symmetry_equiv_pos_site_id
 _symmetry_equiv_pos_as_xyz
  1  'x, y, z'
loop_
 _atom_site_type_symbol
 _atom_site_label
 _atom_site_symmetry_multiplicity
 _atom_site_fract_x
 _atom_site_fract_y
 _atom_site_fract_z
 _atom_site_occupancy
  C  C0  1  0.50627335  0.28677803  0.51282862  1
  C  C1  1  0.00625027  0.21323541  0.98709860  1
  C  C2  1  0.50762160  0.78884860  0.50537330  1
  C  C3  1  0.00759194  0.71111107  0.99457741  1
  N  N4  1  0.58595963  0.23039642  0.63292590  1
  N  N5  1  0.42999642  0.22921371  0.38599724  1
  N  N6  1  0.08609982  0.26965678  0.86711566  1
  N  N7  1  0.93016114  0.27075124  0.11407033  1
  N  N8  1  0.58215906  0.72638025  0.62360403  1
  N  N9  1  0.39243867  0.74210707  0.39917743  1
  N  N10  1  0.08216427  0.77362232  0.87640157  1
  N  N11  1  0.89246380  0.75784356  0.10085271  1
  H  H12  1  0.50026714  0.39038365  0.52035397  1
  H  H13  1  0.64390346  0.28534118  0.72378568  1
  H  H14  1  0.60374557  0.13421401  0.63841546  1
  H  H15  1  0.37665830  0.28089929  0.29433238  1
  H  H16  1  0.44024883  0.13347887  0.36305654  1
  H  H17  1  0.99994412  0.10964533  0.97928806  1
  H  H18  1  0.14387729  0.21474489  0.77611589  1
  H  H19  1  0.10410371  0.36582552  0.86183468  1
  H  H20  1  0.87660960  0.21901632  0.20557138  1
  H  H21  1  0.94077389  0.36643382  0.13728442  1
  H  H22  1  0.54692267  0.88780102  0.49288678  1
  H  H23  1  0.66552161  0.77580942  0.70177051  1
  H  H24  1  0.54734232  0.63566814  0.65038969  1
  H  H25  1  0.34106181  0.79993385  0.31327794  1
  H  H26  1  0.34618651  0.65042015  0.39762885  1
  H  H27  1  0.04682924  0.61212080  0.00690677  1
  H  H28  1  0.16551120  0.72419529  0.79818560  1
  H  H29  1  0.04742046  0.86437905  0.84973179  1
  H  H30  1  0.84105583  0.69997017  0.18667265  1
  H  H31  1  0.84626480  0.84956403  0.10254521  1
  Cu  Cu32  1  0.63569277  0.06558950  0.00623881  1
  Cu  Cu33  1  0.13570371  0.43441869  0.49378240  1
  As  As34  1  0.00398394  0.99779381  0.47810015  1
  As  As35  1  0.50403508  0.50225962  0.02189784  1
  Cl  Cl36  1  0.46999960  0.23882034  0.00629284  1
  Cl  Cl37  1  0.18010919  0.99404585  0.24713018  1
  Cl  Cl38  1  0.70660589  0.00769968  0.26310733  1
  Cl  Cl39  1  0.96992141  0.26128134  0.49378516  1
  Cl  Cl40  1  0.24075537  0.01426657  0.66375300  1
  Cl  Cl41  1  0.76228509  0.97693307  0.78429012  1
  Cl  Cl42  1  0.48384164  0.71997576  0.01205863  1
  Cl  Cl43  1  0.68013365  0.50597356  0.25285639  1
  Cl  Cl44  1  0.20653419  0.49234505  0.23690462  1
  Cl  Cl45  1  0.98382386  0.78009297  0.48793091  1
  Cl  Cl46  1  0.26238392  0.52306147  0.71567719  1
  Cl  Cl47  1  0.74078167  0.48571644  0.83624215  1
