# generated using pymatgen
data_GaCuH10C2(N2Cl3)2
_symmetry_space_group_name_H-M   'P 1'
_cell_length_a   7.93891888
_cell_length_b   10.48898939
_cell_length_c   8.07891245
_cell_angle_alpha   89.88669133
_cell_angle_beta   90.17588808
_cell_angle_gamma   89.98958500
_symmetry_Int_Tables_number   1
_chemical_formula_structural   GaCuH10C2(N2Cl3)2
_chemical_formula_sum   'Ga2 Cu2 H20 C4 N8 Cl12'
_cell_volume   672.73652723
_cell_formula_units_Z   2
loop_
 _symmetry_equiv_pos_site_id
 _symmetry_equiv_pos_as_xyz
  1  'x, y, z'
loop_
 _atom_site_type_symbol
 _atom_site_label
 _atom_site_symmetry_multiplicity
 _atom_site_fract_x
 _atom_site_fract_y
 _atom_site_fract_z
 _atom_site_occupancy
  C  C0  1  0.49543512  0.28378971  0.50010835  1
  C  C1  1  0.99542620  0.21626632  -0.00010174  1
  C  C2  1  0.50326240  0.80392165  0.49787251  1
  C  C3  1  0.00316961  0.69604636  0.00215107  1
  N  N4  1  0.60440078  0.22698484  0.59817090  1
  N  N5  1  0.38497218  0.22854632  0.40366989  1
  N  N6  1  0.10411418  0.27313530  0.90227491  1
  N  N7  1  0.88518968  0.27148165  0.09598759  1
  N  N8  1  0.61201638  0.74533120  0.59418544  1
  N  N9  1  0.39605840  0.74926627  0.39728980  1
  N  N10  1  0.11158779  0.75467005  0.90616347  1
  N  N11  1  0.89615117  0.75069633  0.10230890  1
  H  H12  1  0.49636520  0.38755841  0.49871873  1
  H  H13  1  0.68811167  0.28223475  0.66198106  1
  H  H14  1  0.62001960  0.13080733  0.60593703  1
  H  H15  1  0.30682306  0.28663044  0.33577008  1
  H  H16  1  0.37217307  0.13230593  0.39080606  1
  H  H17  1  0.99638813  0.11251097  1.00118839  1
  H  H18  1  0.18782938  0.21796594  0.83881427  1
  H  H19  1  0.11967170  0.36931215  0.89478029  1
  H  H20  1  0.80710663  0.21338293  0.16344621  1
  H  H21  1  0.87243248  0.36771199  0.10884667  1
  H  H22  1  0.50155271  0.90771311  0.50239698  1
  H  H23  1  0.69250202  0.79896471  0.66413772  1
  H  H24  1  0.63736751  0.65024141  0.58224946  1
  H  H25  1  0.31679756  0.80561949  0.32853301  1
  H  H26  1  0.38253527  0.65259704  0.38339495  1
  H  H27  1  0.00165318  0.59226753  -0.00226891  1
  H  H28  1  0.19190975  0.70108181  0.83644418  1
  H  H29  1  0.13679994  0.84976782  0.91813095  1
  H  H30  1  0.81718275  0.69437906  0.17089736  1
  H  H31  1  0.88240269  0.84737351  0.11597928  1
  Cu  Cu32  1  0.47244704  0.99541820  0.15411603  1
  Cu  Cu33  1  0.97323718  0.50456652  0.34575775  1
  Ga  Ga34  1  0.01604079  0.99692592  0.59708962  1
  Ga  Ga35  1  0.51546485  0.50298995  0.90286352  1
  Cl  Cl36  1  0.49091690  0.31633628  0.02275154  1
  Cl  Cl37  1  0.20912144  0.97923761  0.16997618  1
  Cl  Cl38  1  0.72568875  0.01234296  0.22483928  1
  Cl  Cl39  1  0.99084900  0.18366609  0.47740798  1
  Cl  Cl40  1  0.26837996  0.01318825  0.72432198  1
  Cl  Cl41  1  0.80358862  0.98625400  0.78158826  1
  Cl  Cl42  1  0.50463342  0.69239096  0.01605534  1
  Cl  Cl43  1  0.70978546  0.52074911  0.33121503  1
  Cl  Cl44  1  0.22561121  0.48760655  0.27338238  1
  Cl  Cl45  1  0.00477724  0.80748870  0.48399692  1
  Cl  Cl46  1  0.30247972  0.51362690  0.71778249  1
  Cl  Cl47  1  0.76758955  0.48671263  0.77669559  1
