# generated using pymatgen
data_ZnH10PbC2(N2Cl3)2
_symmetry_space_group_name_H-M   'P 1'
_cell_length_a   6.88967827
_cell_length_b   11.36627693
_cell_length_c   8.63266355
_cell_angle_alpha   88.36305865
_cell_angle_beta   89.98834341
_cell_angle_gamma   90.00198982
_symmetry_Int_Tables_number   1
_chemical_formula_structural   ZnH10PbC2(N2Cl3)2
_chemical_formula_sum   'Zn2 H20 Pb2 C4 N8 Cl12'
_cell_volume   675.74791010
_cell_formula_units_Z   2
loop_
 _symmetry_equiv_pos_site_id
 _symmetry_equiv_pos_as_xyz
  1  'x, y, z'
loop_
 _atom_site_type_symbol
 _atom_site_label
 _atom_site_symmetry_multiplicity
 _atom_site_fract_x
 _atom_site_fract_y
 _atom_site_fract_z
 _atom_site_occupancy
  C  C0  1  0.44162155  0.29795528  0.48645254  1
  C  C1  1  0.94191849  0.20204632  0.01336877  1
  C  C2  1  0.55203751  0.80788637  0.53167027  1
  C  C3  1  0.05202947  0.69212942  0.96842321  1
  N  N4  1  0.52758627  0.26921427  0.61710441  1
  N  N5  1  0.44214906  0.23348989  0.36200469  1
  N  N6  1  0.02797212  0.23103787  0.88279393  1
  N  N7  1  0.94212584  0.26632670  0.13797009  1
  N  N8  1  0.54881683  0.73999719  0.65682208  1
  N  N9  1  0.47984230  0.77989028  0.39677949  1
  N  N10  1  0.04886623  0.76002042  0.84326679  1
  N  N11  1  0.97976487  0.72013185  0.10330579  1
  H  H12  1  0.36352706  0.38142992  0.48112393  1
  H  H13  1  0.53347262  0.32842152  0.70398445  1
  H  H14  1  0.60927104  0.19494188  0.63120979  1
  H  H15  1  0.37290688  0.26494847  0.26488419  1
  H  H16  1  0.52917201  0.16014863  0.35030969  1
  H  H17  1  0.86401339  0.11846619  0.01845358  1
  H  H18  1  0.03414793  0.17195998  0.79579762  1
  H  H19  1  0.10940271  0.30544006  0.86890208  1
  H  H20  1  0.87269582  0.23467951  0.23494683  1
  H  H21  1  0.02896671  0.33971157  0.14988125  1
  H  H22  1  0.61773249  0.89459034  0.54023755  1
  H  H23  1  0.60032250  0.77050062  0.75903679  1
  H  H24  1  0.49363185  0.65651199  0.65775832  1
  H  H25  1  0.49841830  0.83437369  0.30204401  1
  H  H26  1  0.41195203  0.70172387  0.38008266  1
  H  H27  1  0.11773773  0.60543260  0.95986880  1
  H  H28  1  0.10036889  0.72950540  0.74104045  1
  H  H29  1  -0.00639531  0.84348120  0.84231626  1
  H  H30  1  0.99829420  0.66565331  0.19805502  1
  H  H31  1  0.91185285  0.79829866  0.11999874  1
  Zn  Zn32  1  0.44545961  0.04401527  0.92478758  1
  Zn  Zn33  1  0.94532479  0.45595371  0.57523346  1
  Pb  Pb34  1  0.08914504  0.01297309  0.40075868  1
  Pb  Pb35  1  0.58912967  0.48697894  0.09933661  1
  Cl  Cl36  1  0.46936652  0.23755498  0.98805451  1
  Cl  Cl37  1  0.24834317  0.95794139  0.10799988  1
  Cl  Cl38  1  0.71965757  0.02306025  0.28714580  1
  Cl  Cl39  1  0.96909397  0.26240366  0.51194189  1
  Cl  Cl40  1  0.25716741  0.02159252  0.70495625  1
  Cl  Cl41  1  0.73302047  0.97957526  0.83428524  1
  Cl  Cl42  1  0.51519179  0.70672029  0.03133060  1
  Cl  Cl43  1  0.74825787  0.54205254  0.39207126  1
  Cl  Cl44  1  0.21947747  0.47683410  0.21273725  1
  Cl  Cl45  1  0.01524382  0.79322673  0.46880069  1
  Cl  Cl46  1  0.23291508  0.52033177  0.66569784  1
  Cl  Cl47  1  0.75700284  0.47850319  0.79507317  1
