# generated using pymatgen
data_ZnHgH10C2(N2Cl3)2
_symmetry_space_group_name_H-M   'P 1'
_cell_length_a   6.54115341
_cell_length_b   12.99408118
_cell_length_c   8.01916178
_cell_angle_alpha   89.76902224
_cell_angle_beta   89.99312541
_cell_angle_gamma   89.99965546
_symmetry_Int_Tables_number   1
_chemical_formula_structural   ZnHgH10C2(N2Cl3)2
_chemical_formula_sum   'Zn2 Hg2 H20 C4 N8 Cl12'
_cell_volume   681.59336444
_cell_formula_units_Z   2
loop_
 _symmetry_equiv_pos_site_id
 _symmetry_equiv_pos_as_xyz
  1  'x, y, z'
loop_
 _atom_site_type_symbol
 _atom_site_label
 _atom_site_symmetry_multiplicity
 _atom_site_fract_x
 _atom_site_fract_y
 _atom_site_fract_z
 _atom_site_occupancy
  C  C0  1  0.45717054  0.32973563  0.47416790  1
  C  C1  1  0.95732674  0.17024445  0.02579316  1
  C  C2  1  0.53991838  0.82995687  0.52181923  1
  C  C3  1  0.03975839  0.67002814  0.97823207  1
  N  N4  1  0.49510322  0.32408831  0.63433229  1
  N  N5  1  0.49958458  0.25828340  0.36479895  1
  N  N6  1  0.99524101  0.17598296  0.86561936  1
  N  N7  1  0.99949655  0.24169508  0.13520777  1
  N  N8  1  0.50282088  0.75653376  0.62987316  1
  N  N9  1  0.49895259  0.82597397  0.36200344  1
  N  N10  1  0.00275740  0.74341926  0.87010548  1
  N  N11  1  0.99872083  0.67407784  0.13803582  1
  H  H12  1  0.38712524  0.40053821  0.42890490  1
  H  H13  1  0.45112737  0.38480481  0.70567540  1
  H  H14  1  0.55622202  0.26198083  0.69440205  1
  H  H15  1  0.46374128  0.26829349  0.24168381  1
  H  H16  1  0.56947226  0.19035572  0.39612156  1
  H  H17  1  0.88753783  0.09936292  0.07100307  1
  H  H18  1  0.95146732  0.11526491  0.79421669  1
  H  H19  1  0.05611603  0.23816977  0.80559875  1
  H  H20  1  0.96369469  0.23160864  0.25832198  1
  H  H21  1  0.06915617  0.30969399  0.10393633  1
  H  H22  1  0.60646825  0.90098472  0.56908425  1
  H  H23  1  0.53729664  0.76629337  0.75351657  1
  H  H24  1  0.43708212  0.68793134  0.59743737  1
  H  H25  1  0.52730776  0.88877785  0.28890399  1
  H  H26  1  0.43509349  0.76388344  0.30482298  1
  H  H27  1  0.10628028  0.59897010  0.93104540  1
  H  H28  1  0.03730912  0.73361313  0.74648118  1
  H  H29  1  0.93704365  0.81204459  0.90246883  1
  H  H30  1  0.02699123  0.61130121  0.21121288  1
  H  H31  1  0.93490228  0.73620817  0.19514336  1
  Zn  Zn32  1  0.44272445  0.03661145  0.91484456  1
  Zn  Zn33  1  0.94252551  0.46339565  0.58515882  1
  Hg  Hg34  1  0.04456759  0.96960071  0.47789170  1
  Hg  Hg35  1  0.54437887  0.53037386  0.02218463  1
  Cl  Cl36  1  0.48569524  0.20406922  0.97453249  1
  Cl  Cl37  1  0.23161200  0.95181442  0.08313920  1
  Cl  Cl38  1  0.74588309  0.04616956  0.34348516  1
  Cl  Cl39  1  0.98554215  0.29593892  0.52545434  1
  Cl  Cl40  1  0.31884681  0.06094467  0.62495126  1
  Cl  Cl41  1  0.74444877  0.96010082  0.84522215  1
  Cl  Cl42  1  0.52267971  0.71790428  0.01894909  1
  Cl  Cl43  1  0.73143479  0.54817455  0.41685826  1
  Cl  Cl44  1  0.24561894  0.45384321  0.15656746  1
  Cl  Cl45  1  0.02285661  0.78207421  0.48106198  1
  Cl  Cl46  1  0.24423938  0.53990063  0.65476702  1
  Cl  Cl47  1  0.81867929  0.43904592  0.87506666  1
