# generated using pymatgen
data_ZnH10PtC2(N2Cl3)2
_symmetry_space_group_name_H-M   'P 1'
_cell_length_a   6.96725890
_cell_length_b   10.67483527
_cell_length_c   8.44947553
_cell_angle_alpha   90.49416183
_cell_angle_beta   89.99701615
_cell_angle_gamma   90.00955680
_symmetry_Int_Tables_number   1
_chemical_formula_structural   ZnH10PtC2(N2Cl3)2
_chemical_formula_sum   'Zn2 H20 Pt2 C4 N8 Cl12'
_cell_volume   628.40079156
_cell_formula_units_Z   2
loop_
 _symmetry_equiv_pos_site_id
 _symmetry_equiv_pos_as_xyz
  1  'x, y, z'
loop_
 _atom_site_type_symbol
 _atom_site_label
 _atom_site_symmetry_multiplicity
 _atom_site_fract_x
 _atom_site_fract_y
 _atom_site_fract_z
 _atom_site_occupancy
  C  C0  1  0.48888152  0.28972842  0.48345000  1
  C  C1  1  0.98900402  0.21028459  0.01655576  1
  C  C2  1  0.53818611  0.79527370  0.53087345  1
  C  C3  1  0.03832160  0.70472682  0.96912981  1
  N  N4  1  0.52916187  0.26132656  0.62996717  1
  N  N5  1  0.40805966  0.21398520  0.37990430  1
  N  N6  1  0.02944673  0.23876218  0.87008699  1
  N  N7  1  0.90832307  0.28602331  0.12016848  1
  N  N8  1  0.56871594  0.72134313  0.65143340  1
  N  N9  1  0.46844841  0.75984227  0.39372065  1
  N  N10  1  0.06809858  0.77859376  0.84837379  1
  N  N11  1  0.96828828  0.74009498  0.10620929  1
  H  H12  1  0.52641507  0.38346368  0.44295169  1
  H  H13  1  0.59315120  0.32723686  0.70173530  1
  H  H14  1  0.50326187  0.17446786  0.67462138  1
  H  H15  1  0.38598347  0.24354977  0.26652280  1
  H  H16  1  0.36415534  0.12559114  0.40765846  1
  H  H17  1  0.02627363  0.11648424  0.05694329  1
  H  H18  1  0.09330506  0.17284120  0.79827106  1
  H  H19  1  0.00385839  0.32568684  0.82552109  1
  H  H20  1  0.88609272  0.25639410  0.23350581  1
  H  H21  1  0.86466570  0.37447153  0.09250460  1
  H  H22  1  0.57378268  0.89389812  0.54678494  1
  H  H23  1  0.61754424  0.75702751  0.75623066  1
  H  H24  1  0.53605841  0.62830181  0.64891803  1
  H  H25  1  0.43983150  0.82447187  0.30834811  1
  H  H26  1  0.43034905  0.66971256  0.36802167  1
  H  H27  1  0.07489294  0.60623698  0.95349723  1
  H  H28  1  0.11727144  0.74295912  0.74366818  1
  H  H29  1  0.03432139  0.87146301  0.85063176  1
  H  H30  1  0.94028818  0.67550015  0.19177290  1
  H  H31  1  0.92937117  0.83010996  0.13168865  1
  Zn  Zn32  1  0.56238499  0.04818077  0.04710285  1
  Zn  Zn33  1  0.06242378  0.45179659  0.45301907  1
  Pt  Pt34  1  0.99948142  0.02313611  0.47185484  1
  Pt  Pt35  1  0.49955327  0.47690928  0.02818362  1
  Cl  Cl36  1  0.45424201  0.25888119  0.00776955  1
  Cl  Cl37  1  0.29199415  0.97123038  0.14031790  1
  Cl  Cl38  1  0.75184344  0.00745768  0.28262595  1
  Cl  Cl39  1  0.95404275  0.24113723  0.49239208  1
  Cl  Cl40  1  0.23578155  0.02381022  0.66196937  1
  Cl  Cl41  1  0.72082335  0.99261191  0.83426403  1
  Cl  Cl42  1  0.51135469  0.69039992  0.02868469  1
  Cl  Cl43  1  0.79205860  0.52873524  0.35977815  1
  Cl  Cl44  1  0.25189866  0.49256991  0.21743062  1
  Cl  Cl45  1  0.01145948  0.80965762  0.47116599  1
  Cl  Cl46  1  0.22093160  0.50748611  0.66574735  1
  Cl  Cl47  1  0.73593635  0.47620956  0.83812798  1
