# generated using pymatgen
data_HfZnH10C2(N2Cl3)2
_symmetry_space_group_name_H-M   'P 1'
_cell_length_a   6.89794291
_cell_length_b   11.19655689
_cell_length_c   8.84129630
_cell_angle_alpha   90.81613430
_cell_angle_beta   89.99665853
_cell_angle_gamma   89.99009379
_symmetry_Int_Tables_number   1
_chemical_formula_structural   HfZnH10C2(N2Cl3)2
_chemical_formula_sum   'Hf2 Zn2 H20 C4 N8 Cl12'
_cell_volume   682.77241178
_cell_formula_units_Z   2
loop_
 _symmetry_equiv_pos_site_id
 _symmetry_equiv_pos_as_xyz
  1  'x, y, z'
loop_
 _atom_site_type_symbol
 _atom_site_label
 _atom_site_symmetry_multiplicity
 _atom_site_fract_x
 _atom_site_fract_y
 _atom_site_fract_z
 _atom_site_occupancy
  C  C0  1  0.47009458  0.30215323  0.50903845  1
  C  C1  1  0.97058976  0.19776143  0.99080592  1
  C  C2  1  0.52594892  0.77632461  0.51895989  1
  C  C3  1  0.02583683  0.72373752  0.98117497  1
  N  N4  1  0.54959547  0.26845028  0.63639557  1
  N  N5  1  0.46025583  0.23642701  0.38557345  1
  N  N6  1  0.04975389  0.23168908  0.86345302  1
  N  N7  1  0.96012035  0.26349548  0.11426241  1
  N  N8  1  0.53747760  0.70872777  0.63907240  1
  N  N9  1  0.45843389  0.74302566  0.38649673  1
  N  N10  1  0.03709756  0.79128952  0.86101639  1
  N  N11  1  0.95818331  0.75697818  0.11362015  1
  H  H12  1  0.40482646  0.39099930  0.50610569  1
  H  H13  1  0.55359866  0.32620920  0.72644120  1
  H  H14  1  0.61374776  0.18655732  0.64848012  1
  H  H15  1  0.40023434  0.26992724  0.28963749  1
  H  H16  1  0.51762856  0.15211714  0.37712487  1
  H  H17  1  0.90617539  0.10869733  -0.00618530  1
  H  H18  1  0.05452811  0.17387282  0.77347727  1
  H  H19  1  0.11323570  0.31376720  0.85134393  1
  H  H20  1  0.90040747  0.22983087  0.21021116  1
  H  H21  1  1.01675812  0.34797836  0.12265285  1
  H  H22  1  0.57625017  0.86817197  0.53095923  1
  H  H23  1  0.58720025  0.74430711  0.73853979  1
  H  H24  1  0.48725419  0.62304467  0.64356082  1
  H  H25  1  0.45292162  0.80369138  0.30170658  1
  H  H26  1  0.40582654  0.65958202  0.36262409  1
  H  H27  1  0.07653216  0.63194548  0.96923234  1
  H  H28  1  0.08699819  0.75574465  0.76157581  1
  H  H29  1  -0.01349932  0.87690353  0.85645738  1
  H  H30  1  0.95295670  0.69633843  0.19844889  1
  H  H31  1  0.90517719  0.84035299  0.13744645  1
  Zn  Zn32  1  0.50052818  0.98828000  0.96227794  1
  Zn  Zn33  1  1.00006129  0.51164796  0.53789027  1
  Hf  Hf34  1  0.01106691  0.00766712  0.46549755  1
  Hf  Hf35  1  0.51094805  0.49231442  0.03456105  1
  Cl  Cl36  1  0.47803513  0.27565217  0.02715702  1
  Cl  Cl37  1  0.20502962  0.00146491  0.23913863  1
  Cl  Cl38  1  0.71926092  -0.00200418  0.30044369  1
  Cl  Cl39  1  0.97797819  0.22434176  0.47263963  1
  Cl  Cl40  1  0.28753494  0.01854481  0.63179717  1
  Cl  Cl41  1  0.79758317  0.01059619  0.69541378  1
  Cl  Cl42  1  0.50018217  0.70941750  0.01794266  1
  Cl  Cl43  1  0.70479616  0.49842953  0.26096499  1
  Cl  Cl44  1  0.21907240  0.50193201  0.19954097  1
  Cl  Cl45  1  0.00043395  0.79057717  0.48220366  1
  Cl  Cl46  1  0.29771615  0.48952667  0.80448300  1
  Cl  Cl47  1  0.78764587  0.48157617  0.86844273  1
