# generated using pymatgen
data_BaZnH10C2(N2Cl3)2
_symmetry_space_group_name_H-M   'P 1'
_cell_length_a   7.90302650
_cell_length_b   10.60803995
_cell_length_c   7.88885430
_cell_angle_alpha   89.76545860
_cell_angle_beta   90.00040083
_cell_angle_gamma   89.99980065
_symmetry_Int_Tables_number   1
_chemical_formula_structural   BaZnH10C2(N2Cl3)2
_chemical_formula_sum   'Ba2 Zn2 H20 C4 N8 Cl12'
_cell_volume   661.36145633
_cell_formula_units_Z   2
loop_
 _symmetry_equiv_pos_site_id
 _symmetry_equiv_pos_as_xyz
  1  'x, y, z'
loop_
 _atom_site_type_symbol
 _atom_site_label
 _atom_site_symmetry_multiplicity
 _atom_site_fract_x
 _atom_site_fract_y
 _atom_site_fract_z
 _atom_site_occupancy
  C  C0  1  0.49449267  0.29339708  0.49625401  1
  C  C1  1  0.99454897  0.20658308  0.00373897  1
  C  C2  1  0.50522399  0.79342621  0.50308994  1
  C  C3  1  0.00516831  0.70658328  0.99690370  1
  N  N4  1  0.60238948  0.23739798  0.59766590  1
  N  N5  1  0.39128646  0.23751011  0.39055301  1
  N  N6  1  0.10246844  0.26260423  0.90236172  1
  N  N7  1  0.89132799  0.26248659  0.10944805  1
  N  N8  1  0.60786482  0.73748179  0.60987941  1
  N  N9  1  0.39927511  0.73733044  0.40018755  1
  N  N10  1  0.10780453  0.76252806  0.89013982  1
  N  N11  1  0.89918735  0.76267023  0.09979486  1
  H  H12  1  0.48964098  0.39593671  0.50050977  1
  H  H13  1  0.68180692  0.29205877  0.66861528  1
  H  H14  1  0.60659948  0.14215973  0.61662306  1
  H  H15  1  0.30760113  0.29263138  0.32435112  1
  H  H16  1  0.39385015  0.14321929  0.36444450  1
  H  H17  1  0.98967629  0.10406108  0.99946063  1
  H  H18  1  0.18188636  0.20793547  0.83141602  1
  H  H19  1  0.10670015  0.35783061  0.88343864  1
  H  H20  1  0.80762384  0.20735906  0.17561674  1
  H  H21  1  0.89390600  0.35676266  0.13556394  1
  H  H22  1  0.50865323  0.89598781  0.49913833  1
  H  H23  1  0.67798817  0.79288020  0.68940994  1
  H  H24  1  0.62809360  0.64237679  0.61403778  1
  H  H25  1  0.33169771  0.79182202  0.31704188  1
  H  H26  1  0.37370614  0.64300420  0.40373084  1
  H  H27  1  0.00860291  0.60401857  0.00086680  1
  H  H28  1  0.17795548  0.70714033  0.81062276  1
  H  H29  1  0.12802751  0.85763604  0.88599090  1
  H  H30  1  0.83161015  0.70817379  0.18293500  1
  H  H31  1  0.87360619  0.85699764  0.09625105  1
  Zn  Zn32  1  0.49617889  0.99999645  0.99673174  1
  Zn  Zn33  1  0.99618009  0.50001590  0.50328465  1
  Ba  Ba34  1  0.00067258  0.00002750  0.49677691  1
  Ba  Ba35  1  0.50067557  0.49998634  0.00322638  1
  Cl  Cl36  1  0.50033033  0.21824669  0.99453033  1
  Cl  Cl37  1  0.23897703  0.98728975  0.19722649  1
  Cl  Cl38  1  0.69880146  0.01366096  0.26139838  1
  Cl  Cl39  1  0.00030708  0.28176710  0.50549693  1
  Cl  Cl40  1  0.29980972  0.01203631  0.73720345  1
  Cl  Cl41  1  0.76260199  0.98715545  0.79782909  1
  Cl  Cl42  1  0.50249522  0.78181770  0.00340211  1
  Cl  Cl43  1  0.73896368  0.51271265  0.30278790  1
  Cl  Cl44  1  0.19880323  0.48633584  0.23858716  1
  Cl  Cl45  1  0.00255174  0.71819156  0.49656231  1
  Cl  Cl46  1  0.26259657  0.51285735  0.70218322  1
  Cl  Cl47  1  0.79980361  0.48797420  0.76279577  1
