# generated using pymatgen
data_ZnH12PbC2(I3N)2
_symmetry_space_group_name_H-M   'P 1'
_cell_length_a   8.15048816
_cell_length_b   12.77630038
_cell_length_c   8.59730399
_cell_angle_alpha   90.01757685
_cell_angle_beta   90.01318772
_cell_angle_gamma   90.00119350
_symmetry_Int_Tables_number   1
_chemical_formula_structural   ZnH12PbC2(I3N)2
_chemical_formula_sum   'Zn2 H24 Pb2 C4 I12 N4'
_cell_volume   895.26372125
_cell_formula_units_Z   2
loop_
 _symmetry_equiv_pos_site_id
 _symmetry_equiv_pos_as_xyz
  1  'x, y, z'
loop_
 _atom_site_type_symbol
 _atom_site_label
 _atom_site_symmetry_multiplicity
 _atom_site_fract_x
 _atom_site_fract_y
 _atom_site_fract_z
 _atom_site_occupancy
  C  C0  1  0.38698850  0.24864696  0.38383208  1
  C  C1  1  0.88741655  0.24687394  0.11660405  1
  C  C2  1  0.61294375  0.74669476  0.61630163  1
  C  C3  1  0.11265135  0.74862685  0.88351115  1
  N  N4  1  0.52729353  0.26133874  0.49230428  1
  N  N5  1  0.02756365  0.25762411  0.00733845  1
  N  N6  1  0.47254498  0.75764777  0.50730817  1
  N  N7  1  0.97260923  0.76126469  0.99223938  1
  H  H8  1  0.43341472  0.24661172  0.26416024  1
  H  H9  1  0.32502007  0.17496280  0.41126762  1
  H  H10  1  0.30306118  0.31476761  0.39855059  1
  H  H11  1  0.60955740  0.19982248  0.47918503  1
  H  H12  1  0.59083044  0.33098397  0.46969420  1
  H  H13  1  0.49116912  0.26201156  0.60909749  1
  H  H14  1  0.93468196  0.24645822  0.23605942  1
  H  H15  1  0.82173541  0.17409288  0.09113437  1
  H  H16  1  0.80582493  0.31414044  0.10108090  1
  H  H17  1  0.11049319  0.19628991  0.01876133  1
  H  H18  1  0.09087792  0.32744106  0.03068950  1
  H  H19  1  0.99040390  0.25861268  0.89115797  1
  H  H20  1  0.56598393  0.74623374  0.73584374  1
  H  H21  1  0.67838129  0.67386963  0.59058559  1
  H  H22  1  0.69466460  0.81388832  0.60071316  1
  H  H23  1  0.40942912  0.82750562  0.53086135  1
  H  H24  1  0.38950824  0.69638013  0.51878648  1
  H  H25  1  0.50943520  0.75867007  0.39106545  1
  H  H26  1  0.06592676  0.74661474  0.76392414  1
  H  H27  1  0.19659002  0.81475895  0.89810943  1
  H  H28  1  0.17470992  0.67494364  0.91076999  1
  H  H29  1  0.90898793  0.83090118  0.96976434  1
  H  H30  1  0.89034406  0.69973018  0.97924967  1
  H  H31  1  0.00900235  0.76193278  0.10897561  1
  Zn  Zn32  1  0.55003588  0.94706744  0.07466232  1
  Zn  Zn33  1  0.94992831  0.44700008  0.57463098  1
  Pb  Pb34  1  0.04888534  0.98889656  0.43313801  1
  Pb  Pb35  1  0.45114649  0.48893703  0.93318706  1
  I  I36  1  0.46751830  0.25662009  0.90489462  1
  I  I37  1  0.22921176  0.00979558  0.11129822  1
  I  I38  1  0.66017135  0.01411676  0.34602631  1
  I  I39  1  0.96722727  0.24151249  0.59434372  1
  I  I40  1  0.31581377  0.98797802  0.67300210  1
  I  I41  1  0.76754451  0.99391714  0.86351975  1
  I  I42  1  0.53266684  0.74156735  0.09425740  1
  I  I43  1  0.73245755  0.49388208  0.36337537  1
  I  I44  1  0.18427248  0.48800332  0.17297276  1
  I  I45  1  0.03258660  0.75658778  0.40474558  1
  I  I46  1  0.27070583  0.50985018  0.61133425  1
  I  I47  1  0.83980625  0.51400422  0.84598133  1
