# generated using pymatgen
data_ZnSnH10C2(N2Cl3)2
_symmetry_space_group_name_H-M   'P 1'
_cell_length_a   6.85726422
_cell_length_b   11.50976922
_cell_length_c   8.60956389
_cell_angle_alpha   87.98964340
_cell_angle_beta   89.99216083
_cell_angle_gamma   90.00339150
_symmetry_Int_Tables_number   1
_chemical_formula_structural   ZnSnH10C2(N2Cl3)2
_chemical_formula_sum   'Zn2 Sn2 H20 C4 N8 Cl12'
_cell_volume   679.09613391
_cell_formula_units_Z   2
loop_
 _symmetry_equiv_pos_site_id
 _symmetry_equiv_pos_as_xyz
  1  'x, y, z'
loop_
 _atom_site_type_symbol
 _atom_site_label
 _atom_site_symmetry_multiplicity
 _atom_site_fract_x
 _atom_site_fract_y
 _atom_site_fract_z
 _atom_site_occupancy
  C  C0  1  0.44775906  0.29661602  0.49013105  1
  C  C1  1  0.94796933  0.20334443  0.00976683  1
  C  C2  1  0.54118400  0.80670181  0.52849713  1
  C  C3  1  0.04113824  0.69331022  0.97158284  1
  N  N4  1  0.52668357  0.26644184  0.62397767  1
  N  N5  1  0.44475284  0.23116503  0.36795839  1
  N  N6  1  0.02684355  0.23371916  0.87595192  1
  N  N7  1  0.94463928  0.26872646  0.13200129  1
  N  N8  1  0.56496103  0.74125987  0.65473682  1
  N  N9  1  0.46983063  0.77155413  0.39676719  1
  N  N10  1  0.06492644  0.75873226  0.84531747  1
  N  N11  1  0.96972939  0.72846878  0.10330135  1
  H  H12  1  0.37968426  0.38228105  0.48039077  1
  H  H13  1  0.54252535  0.32669351  0.70765244  1
  H  H14  1  0.59634322  0.18906047  0.64256399  1
  H  H15  1  0.37935161  0.26126666  0.26800985  1
  H  H16  1  0.52421344  0.15559730  0.36103524  1
  H  H17  1  0.88025325  0.11758622  0.01941987  1
  H  H18  1  0.04300145  0.17352797  0.79222429  1
  H  H19  1  0.09607653  0.31125515  0.85739897  1
  H  H20  1  0.87922662  0.23848281  0.23188606  1
  H  H21  1  0.02386245  0.34438160  0.13901973  1
  H  H22  1  0.58318643  0.89773544  0.53409910  1
  H  H23  1  0.61897332  0.77799364  0.75202928  1
  H  H24  1  0.53705524  0.65409180  0.65953755  1
  H  H25  1  0.45882281  0.82722403  0.30229069  1
  H  H26  1  0.42188611  0.68869119  0.38418354  1
  H  H27  1  0.08318289  0.60229559  0.96601972  1
  H  H28  1  0.11896710  0.72199375  0.74802454  1
  H  H29  1  0.03695869  0.84590215  0.84047678  1
  H  H30  1  0.95872687  0.67281415  0.19780019  1
  H  H31  1  0.92173136  0.81132964  0.11586527  1
  Zn  Zn32  1  0.44494401  0.03982153  0.93254595  1
  Zn  Zn33  1  0.94487404  0.46017633  0.56744461  1
  Sn  Sn34  1  0.07620287  0.01202139  0.40305882  1
  Sn  Sn35  1  0.57608781  0.48794761  0.09699881  1
  Cl  Cl36  1  0.46966734  0.22936513  0.99378672  1
  Cl  Cl37  1  0.25380813  0.95054812  0.12237160  1
  Cl  Cl38  1  0.72618801  0.02226310  0.28816826  1
  Cl  Cl39  1  0.96955739  0.27062108  0.50619416  1
  Cl  Cl40  1  0.25197572  0.01901116  0.71522939  1
  Cl  Cl41  1  0.73182160  0.96880726  0.84978885  1
  Cl  Cl42  1  0.50844648  0.69482062  0.02976731  1
  Cl  Cl43  1  0.75367430  0.54941841  0.37771658  1
  Cl  Cl44  1  0.22597703  0.47767760  0.21177451  1
  Cl  Cl45  1  0.00852325  0.80514591  0.47030375  1
  Cl  Cl46  1  0.23180266  0.53115723  0.65016301  1
  Cl  Cl47  1  0.75202230  0.48101639  0.78487461  1
