# generated using pymatgen
data_ZnInH10C2(N2Cl3)2
_symmetry_space_group_name_H-M   'P 1'
_cell_length_a   7.87073203
_cell_length_b   10.47971634
_cell_length_c   7.75813664
_cell_angle_alpha   89.70907131
_cell_angle_beta   90.32328517
_cell_angle_gamma   90.04567385
_symmetry_Int_Tables_number   1
_chemical_formula_structural   ZnInH10C2(N2Cl3)2
_chemical_formula_sum   'Zn2 In2 H20 C4 N8 Cl12'
_cell_volume   639.89606269
_cell_formula_units_Z   2
loop_
 _symmetry_equiv_pos_site_id
 _symmetry_equiv_pos_as_xyz
  1  'x, y, z'
loop_
 _atom_site_type_symbol
 _atom_site_label
 _atom_site_symmetry_multiplicity
 _atom_site_fract_x
 _atom_site_fract_y
 _atom_site_fract_z
 _atom_site_occupancy
  C  C0  1  0.49654604  0.28852333  0.49668790  1
  C  C1  1  1.00122325  0.20387782  0.00208775  1
  C  C2  1  0.50160990  0.79691421  0.49946013  1
  C  C3  1  0.00611925  0.71091624  0.99969479  1
  N  N4  1  0.60733315  0.23256248  0.59867174  1
  N  N5  1  0.39196039  0.23122502  0.39080132  1
  N  N6  1  0.10905930  0.25996777  0.89857473  1
  N  N7  1  0.89900626  0.26068002  0.10967838  1
  N  N8  1  0.60662949  0.74010297  0.60653531  1
  N  N9  1  0.39226895  0.74028641  0.39799771  1
  N  N10  1  0.10925085  0.76689906  0.89115521  1
  N  N11  1  0.90025913  0.76795398  0.10358957  1
  H  H12  1  0.49056750  0.39225106  0.50020251  1
  H  H13  1  0.67522916  0.28772122  0.68246758  1
  H  H14  1  0.61208631  0.13626473  0.61896113  1
  H  H15  1  0.31577690  0.28731572  0.31486009  1
  H  H16  1  0.39206014  0.13535381  0.36757328  1
  H  H17  1  0.99552861  0.10020468  0.99833654  1
  H  H18  1  0.18832465  0.20398031  0.82727277  1
  H  H19  1  0.12374610  0.35642793  0.88898440  1
  H  H20  1  0.81290583  0.20590250  0.17521917  1
  H  H21  1  0.89221181  0.35710025  0.12487502  1
  H  H22  1  0.50643545  0.90057372  0.49386807  1
  H  H23  1  0.67608423  0.79542412  0.68940637  1
  H  H24  1  0.60680430  0.64403162  0.62721586  1
  H  H25  1  0.32526642  0.79558339  0.31239108  1
  H  H26  1  0.37537623  0.64380496  0.39197756  1
  H  H27  1  0.00913410  0.60712643  0.00445171  1
  H  H28  1  0.18669030  0.71058446  0.81851974  1
  H  H29  1  0.12752410  0.86328527  0.88406986  1
  H  H30  1  0.82331517  0.71241686  0.17839964  1
  H  H31  1  0.87528871  0.86353918  0.10097800  1
  Zn  Zn32  1  0.49755291  0.99881254  0.99597428  1
  Zn  Zn33  1  0.91562912  0.49952930  0.51813859  1
  In  In34  1  0.99017909  -0.00008980  0.49703239  1
  In  In35  1  0.48834552  0.50023275  0.00235048  1
  Cl  Cl36  1  0.51214456  0.26386077  0.99707641  1
  Cl  Cl37  1  0.25734903  0.98396385  0.18513312  1
  Cl  Cl38  1  0.68887673  0.01495495  0.24280369  1
  Cl  Cl39  1  0.00809014  0.30231040  0.50081417  1
  Cl  Cl40  1  0.31332604  0.01664002  0.74960101  1
  Cl  Cl41  1  0.74516197  0.98575255  0.80925627  1
  Cl  Cl42  1  0.51185458  0.73738043  0.00386578  1
  Cl  Cl43  1  0.71080408  0.51156572  0.26954451  1
  Cl  Cl44  1  0.24448243  0.48765764  0.20571305  1
  Cl  Cl45  1  0.00654746  0.69716735  0.49822295  1
  Cl  Cl46  1  0.30717875  0.51361956  0.73704653  1
  Cl  Cl47  1  0.77087496  0.48790341  0.79256659  1
