# generated using pymatgen
data_ZnCdH10C2(N2Cl3)2
_symmetry_space_group_name_H-M   'P 1'
_cell_length_a   6.55772601
_cell_length_b   12.87412126
_cell_length_c   7.95970113
_cell_angle_alpha   89.80959941
_cell_angle_beta   90.00038209
_cell_angle_gamma   90.00050314
_symmetry_Int_Tables_number   1
_chemical_formula_structural   ZnCdH10C2(N2Cl3)2
_chemical_formula_sum   'Zn2 Cd2 H20 C4 N8 Cl12'
_cell_volume   671.99373818
_cell_formula_units_Z   2
loop_
 _symmetry_equiv_pos_site_id
 _symmetry_equiv_pos_as_xyz
  1  'x, y, z'
loop_
 _atom_site_type_symbol
 _atom_site_label
 _atom_site_symmetry_multiplicity
 _atom_site_fract_x
 _atom_site_fract_y
 _atom_site_fract_z
 _atom_site_occupancy
  C  C0  1  0.42981900  0.31260867  0.46495689  1
  C  C1  1  0.92959825  0.18742311  0.03508528  1
  C  C2  1  0.56366045  0.81555581  0.53993271  1
  C  C3  1  0.06386097  0.68446688  0.96002765  1
  N  N4  1  0.47733161  0.31809436  0.62447554  1
  N  N5  1  0.47160492  0.23407910  0.36656741  1
  N  N6  1  0.97714412  0.18191748  0.87557875  1
  N  N7  1  0.97144458  0.26596006  0.13346897  1
  N  N8  1  0.51330691  0.73626435  0.63441693  1
  N  N9  1  0.52120549  0.82508811  0.37928980  1
  N  N10  1  0.01342574  0.76379831  0.86566693  1
  N  N11  1  0.02155311  0.67485141  0.12069110  1
  H  H12  1  0.35196843  0.37938725  0.40989044  1
  H  H13  1  0.43521115  0.38300695  0.68899929  1
  H  H14  1  0.54942823  0.26044772  0.68915174  1
  H  H15  1  0.43721821  0.23727345  0.24070192  1
  H  H16  1  0.55206564  0.17029879  0.40663257  1
  H  H17  1  0.85168009  0.12068076  0.09018766  1
  H  H18  1  0.93498072  0.11698622  0.81106725  1
  H  H19  1  0.04932910  0.23953424  0.81088186  1
  H  H20  1  0.93709744  0.26277467  0.25931853  1
  H  H21  1  0.05197959  0.32968765  0.09338092  1
  H  H22  1  0.64285971  0.88033776  0.59943399  1
  H  H23  1  0.54393647  0.73699765  0.76130580  1
  H  H24  1  0.43381382  0.67364507  0.58944642  1
  H  H25  1  0.57938947  0.88828779  0.31717932  1
  H  H26  1  0.45476062  0.76825456  0.30896653  1
  H  H27  1  0.14302554  0.61971071  0.90039447  1
  H  H28  1  0.04391389  0.76310526  0.73874763  1
  H  H29  1  0.93392669  0.82639040  0.91074434  1
  H  H30  1  0.07976819  0.61160395  0.18265861  1
  H  H31  1  0.95515109  0.73164351  0.19114733  1
  Zn  Zn32  1  0.43420701  0.04393120  0.91739305  1
  Zn  Zn33  1  0.93435831  0.45605928  0.58257380  1
  Cd  Cd34  1  0.09679047  0.96355701  0.41127247  1
  Cd  Cd35  1  0.59699131  0.53644407  0.08871261  1
  Cl  Cl36  1  0.45545344  0.21337842  0.97562134  1
  Cl  Cl37  1  0.22802497  0.95726224  0.10327747  1
  Cl  Cl38  1  0.75756532  0.03756868  0.35684237  1
  Cl  Cl39  1  0.95568054  0.28659349  0.52440267  1
  Cl  Cl40  1  0.29357822  0.05107147  0.63803308  1
  Cl  Cl41  1  0.73486942  0.96780114  0.86611839  1
  Cl  Cl42  1  0.54126994  0.72115701  0.02802028  1
  Cl  Cl43  1  0.72815188  0.54272124  0.39670990  1
  Cl  Cl44  1  0.25781932  0.46235220  0.14304270  1
  Cl  Cl45  1  0.04099113  0.77885507  0.47200919  1
  Cl  Cl46  1  0.23501207  0.53221734  0.63374008  1
  Cl  Cl47  1  0.79379679  0.44893107  0.86194075  1
