# generated using pymatgen
data_ZnH10PdC2(N2Cl3)2
_symmetry_space_group_name_H-M   'P 1'
_cell_length_a   6.89699070
_cell_length_b   10.71282629
_cell_length_c   8.45076950
_cell_angle_alpha   90.57338400
_cell_angle_beta   89.99773088
_cell_angle_gamma   90.01274072
_symmetry_Int_Tables_number   1
_chemical_formula_structural   ZnH10PdC2(N2Cl3)2
_chemical_formula_sum   'Zn2 H20 Pd2 C4 N8 Cl12'
_cell_volume   624.36449812
_cell_formula_units_Z   2
loop_
 _symmetry_equiv_pos_site_id
 _symmetry_equiv_pos_as_xyz
  1  'x, y, z'
loop_
 _atom_site_type_symbol
 _atom_site_label
 _atom_site_symmetry_multiplicity
 _atom_site_fract_x
 _atom_site_fract_y
 _atom_site_fract_z
 _atom_site_occupancy
  C  C0  1  0.46491525  0.29365283  0.48160073  1
  C  C1  1  0.96512148  0.20632853  0.01836310  1
  C  C2  1  0.53534426  0.79306876  0.50795902  1
  C  C3  1  0.03547359  0.70693371  0.99209290  1
  N  N4  1  0.54634262  0.26128117  0.61538449  1
  N  N5  1  0.43577442  0.21889381  0.36084561  1
  N  N6  1  0.04642618  0.23889900  0.88460679  1
  N  N7  1  0.93551343  0.28102214  0.13911650  1
  N  N8  1  0.56280599  0.72145711  0.63087356  1
  N  N9  1  0.46228897  0.75701566  0.37203887  1
  N  N10  1  0.06274287  0.77854097  0.86912730  1
  N  N11  1  0.96231303  0.74292670  0.12798674  1
  H  H12  1  0.41675037  0.38994761  0.47028575  1
  H  H13  1  0.56563318  0.32579925  0.70346346  1
  H  H14  1  0.59853726  0.17375823  0.63513902  1
  H  H15  1  0.37612555  0.25409873  0.26028639  1
  H  H16  1  0.48404293  0.12875026  0.35701112  1
  H  H17  1  0.91747374  0.10991794  0.02970118  1
  H  H18  1  0.06623278  0.17439126  0.79658463  1
  H  H19  1  0.09822533  0.32653677  0.86487848  1
  H  H20  1  0.87596785  0.24567536  0.23964731  1
  H  H21  1  0.98321930  0.37129494  0.14293449  1
  H  H22  1  0.57767649  0.89047862  0.52047441  1
  H  H23  1  0.61784680  0.75800363  0.73329160  1
  H  H24  1  0.52423238  0.62984289  0.63145916  1
  H  H25  1  0.44044349  0.82055509  0.28465047  1
  H  H26  1  0.41981715  0.66746714  0.34774845  1
  H  H27  1  0.07809881  0.60958199  0.97963986  1
  H  H28  1  0.11786905  0.74203283  0.76672884  1
  H  H29  1  0.02383985  0.87008866  0.86846951  1
  H  H30  1  0.94063569  0.67939028  0.21541867  1
  H  H31  1  0.91960604  0.83242645  0.15223667  1
  Zn  Zn32  1  0.43489809  0.04260699  0.92730531  1
  Zn  Zn33  1  0.93480079  0.45734927  0.57273328  1
  Pd  Pd34  1  0.00288601  0.02040438  0.50012453  1
  Pd  Pd35  1  0.50289423  0.47959979  0.99988196  1
  Cl  Cl36  1  0.49516147  0.25742265  0.99294743  1
  Cl  Cl37  1  0.27135258  0.98257012  0.13433388  1
  Cl  Cl38  1  0.77087553  0.01454514  0.30261752  1
  Cl  Cl39  1  0.99512545  0.24258162  0.50698687  1
  Cl  Cl40  1  0.26809281  0.01816633  0.67759811  1
  Cl  Cl41  1  0.71586359  0.98503196  0.82181574  1
  Cl  Cl42  1  0.51232353  0.69244011  0.00629837  1
  Cl  Cl43  1  0.77124140  0.51736970  0.36573129  1
  Cl  Cl44  1  0.27079530  0.48535547  0.19733185  1
  Cl  Cl45  1  0.01235169  0.80757401  0.49373522  1
  Cl  Cl46  1  0.21582620  0.51501669  0.67812117  1
  Cl  Cl47  1  0.76819454  0.48197042  0.82249716  1
