# generated using pymatgen
data_ZrZnH10C2(N2Cl3)2
_symmetry_space_group_name_H-M   'P 1'
_cell_length_a   6.91567438
_cell_length_b   11.17170062
_cell_length_c   8.85645815
_cell_angle_alpha   90.89349014
_cell_angle_beta   89.99830492
_cell_angle_gamma   89.97783932
_symmetry_Int_Tables_number   1
_chemical_formula_structural   ZrZnH10C2(N2Cl3)2
_chemical_formula_sum   'Zr2 Zn2 H20 C4 N8 Cl12'
_cell_volume   684.16532420
_cell_formula_units_Z   2
loop_
 _symmetry_equiv_pos_site_id
 _symmetry_equiv_pos_as_xyz
  1  'x, y, z'
loop_
 _atom_site_type_symbol
 _atom_site_label
 _atom_site_symmetry_multiplicity
 _atom_site_fract_x
 _atom_site_fract_y
 _atom_site_fract_z
 _atom_site_occupancy
  C  C0  1  0.46705770  0.30138245  0.50767406  1
  C  C1  1  0.96770873  0.19853475  0.99208303  1
  C  C2  1  0.52762137  0.77644333  0.51799240  1
  C  C3  1  0.02741209  0.72360561  0.98218839  1
  N  N4  1  0.54796847  0.26881743  0.63462562  1
  N  N5  1  0.46071312  0.23578856  0.38387301  1
  N  N6  1  0.04829964  0.23135069  0.86512987  1
  N  N7  1  0.96070165  0.26412908  0.11586530  1
  N  N8  1  0.53616894  0.70946261  0.63860658  1
  N  N9  1  0.45710492  0.74362050  0.38649490  1
  N  N10  1  0.03561009  0.79056186  0.86154219  1
  N  N11  1  0.95675824  0.75636063  0.11368342  1
  H  H12  1  0.39733686  0.38916946  0.50542788  1
  H  H13  1  0.54636773  0.32603919  0.72534354  1
  H  H14  1  0.61518177  0.18774190  0.64666582  1
  H  H15  1  0.39933461  0.26872297  0.28837258  1
  H  H16  1  0.52222463  0.15242837  0.37465131  1
  H  H17  1  0.89887688  0.11051878  0.99435872  1
  H  H18  1  0.04755431  0.17405934  0.77447971  1
  H  H19  1  0.11479105  0.31262343  0.85310951  1
  H  H20  1  0.89961544  0.23102972  0.21137533  1
  H  H21  1  0.02143866  0.34767171  0.12506361  1
  H  H22  1  0.58342001  0.86737087  0.52854616  1
  H  H23  1  0.58863565  0.74496648  0.73711380  1
  H  H24  1  0.48085250  0.62483450  0.64459771  1
  H  H25  1  0.45497940  0.80371865  0.30104649  1
  H  H26  1  0.39941283  0.66106444  0.36394941  1
  H  H27  1  0.08365156  0.63275545  0.97167076  1
  H  H28  1  0.08826471  0.75511200  0.76304969  1
  H  H29  1  0.97988251  0.87511880  0.85551149  1
  H  H30  1  0.95500355  0.69627764  0.19915840  1
  H  H31  1  0.89863268  0.83883097  0.13620718  1
  Zn  Zn32  1  0.50463613  0.98911758  0.96124283  1
  Zn  Zn33  1  1.00369945  0.51085480  0.53912220  1
  Zr  Zr34  1  0.01565628  0.00732725  0.46425192  1
  Zr  Zr35  1  0.51549432  0.49264493  0.03581484  1
  Cl  Cl36  1  0.47734230  0.27321734  0.02516463  1
  Cl  Cl37  1  0.20675627  0.00064579  0.23354995  1
  Cl  Cl38  1  0.71891198  0.99794971  0.29841741  1
  Cl  Cl39  1  0.97720752  0.22677163  0.47453422  1
  Cl  Cl40  1  0.29382995  0.01793054  0.63210516  1
  Cl  Cl41  1  0.79999537  0.01056388  0.69752641  1
  Cl  Cl42  1  0.49905752  0.71250699  0.01772248  1
  Cl  Cl43  1  0.70654363  0.49918451  0.26653161  1
  Cl  Cl44  1  0.21874183  0.50194565  0.20165046  1
  Cl  Cl45  1  -0.00053666  0.78747795  0.48246984  1
  Cl  Cl46  1  0.30014052  0.48961789  0.80231632  1
  Cl  Cl47  1  0.79396062  0.48219437  0.86822663  1
