# generated using pymatgen
data_YZnH10C2(N2Cl3)2
_symmetry_space_group_name_H-M   'P 1'
_cell_length_a   6.74719141
_cell_length_b   13.08571868
_cell_length_c   8.12575255
_cell_angle_alpha   91.03537777
_cell_angle_beta   102.75460777
_cell_angle_gamma   94.40821472
_symmetry_Int_Tables_number   1
_chemical_formula_structural   YZnH10C2(N2Cl3)2
_chemical_formula_sum   'Y2 Zn2 H20 C4 N8 Cl12'
_cell_volume   697.21159323
_cell_formula_units_Z   2
loop_
 _symmetry_equiv_pos_site_id
 _symmetry_equiv_pos_as_xyz
  1  'x, y, z'
loop_
 _atom_site_type_symbol
 _atom_site_label
 _atom_site_symmetry_multiplicity
 _atom_site_fract_x
 _atom_site_fract_y
 _atom_site_fract_z
 _atom_site_occupancy
  C  C0  1  0.42603434  0.29685928  0.45135326  1
  C  C1  1  0.92089472  0.19856567  0.04089361  1
  C  C2  1  0.51179916  0.79745340  0.52074915  1
  C  C3  1  0.08371212  0.70855750  0.98313851  1
  N  N4  1  0.48840708  0.28399577  0.61346298  1
  N  N5  1  0.38733040  0.22217250  0.33621495  1
  N  N6  1  0.98818124  0.18929143  0.90263042  1
  N  N7  1  0.95297598  0.28107455  0.14127656  1
  N  N8  1  0.55121103  0.70939575  0.59072950  1
  N  N9  1  0.50998617  0.81743373  0.36232181  1
  N  N10  1  0.07977412  0.78738328  0.88641217  1
  N  N11  1  0.07141832  0.71468079  0.14186033  1
  H  H12  1  0.40437858  0.37488861  0.40927422  1
  H  H13  1  0.50057995  0.34409136  0.69692863  1
  H  H14  1  0.49693143  0.21188042  0.66013065  1
  H  H15  1  0.37048065  0.24011992  0.21200350  1
  H  H16  1  0.41757252  0.14841692  0.36660940  1
  H  H17  1  0.83099923  0.13271608  0.07617836  1
  H  H18  1  0.95536555  0.12031946  0.83432928  1
  H  H19  1  0.08171917  0.24464152  0.86461957  1
  H  H20  1  0.91191296  0.27785328  0.25556895  1
  H  H21  1  0.04048957  0.34544461  0.12169164  1
  H  H22  1  0.48292329  0.85986810  0.60135781  1
  H  H23  1  0.55217197  0.70188296  0.71613347  1
  H  H24  1  0.58215252  0.64755972  0.52510992  1
  H  H25  1  0.46965360  0.88734701  0.31734476  1
  H  H26  1  0.53430649  0.76451453  0.27550975  1
  H  H27  1  0.09727288  0.63332594  0.92900035  1
  H  H28  1  0.08108708  0.77759713  0.76095719  1
  H  H29  1  0.06105269  0.85958589  0.92828794  1
  H  H30  1  0.07194019  0.65002427  0.20957978  1
  H  H31  1  0.05299622  0.78283104  0.19790816  1
  Zn  Zn32  1  0.49904610  0.94568719  0.96996844  1
  Zn  Zn33  1  0.94615260  0.44438176  0.59971398  1
  Y  Y34  1  0.99533500  0.96983899  0.47122530  1
  Y  Y35  1  0.52211220  0.49876428  0.03246738  1
  Cl  Cl36  1  0.45167527  0.30252744  0.98610741  1
  Cl  Cl37  1  0.11875086  0.96842418  0.19054374  1
  Cl  Cl38  1  0.69235481  0.06252093  0.32256516  1
  Cl  Cl39  1  0.96068870  0.28164667  0.53763713  1
  Cl  Cl40  1  0.33718202  0.05220253  0.62883225  1
  Cl  Cl41  1  0.84747655  0.97242439  0.73957783  1
  Cl  Cl42  1  0.57505576  0.69383561  0.01594817  1
  Cl  Cl43  1  0.77364096  0.51929635  0.35178556  1
  Cl  Cl44  1  0.23639162  0.49647694  0.19472983  1
  Cl  Cl45  1  0.02012493  0.77411246  0.49450826  1
  Cl  Cl46  1  0.26795898  0.52029351  0.71545945  1
  Cl  Cl47  1  0.78836177  0.48585732  0.81946828  1
