# generated using pymatgen
data_SrZnH10C2(N2Cl3)2
_symmetry_space_group_name_H-M   'P 1'
_cell_length_a   7.80381046
_cell_length_b   10.37198389
_cell_length_c   7.78965908
_cell_angle_alpha   89.74874424
_cell_angle_beta   90.00101473
_cell_angle_gamma   90.00105691
_symmetry_Int_Tables_number   1
_chemical_formula_structural   SrZnH10C2(N2Cl3)2
_chemical_formula_sum   'Sr2 Zn2 H20 C4 N8 Cl12'
_cell_volume   630.49670533
_cell_formula_units_Z   2
loop_
 _symmetry_equiv_pos_site_id
 _symmetry_equiv_pos_as_xyz
  1  'x, y, z'
loop_
 _atom_site_type_symbol
 _atom_site_label
 _atom_site_symmetry_multiplicity
 _atom_site_fract_x
 _atom_site_fract_y
 _atom_site_fract_z
 _atom_site_occupancy
  C  C0  1  0.49487196  0.29373056  0.49640456  1
  C  C1  1  0.99489745  0.20627881  0.00361934  1
  C  C2  1  0.50476849  0.79373160  0.50300808  1
  C  C3  1  0.00473940  0.70627654  0.99696678  1
  N  N4  1  0.60357169  0.23656122  0.59938574  1
  N  N5  1  0.39079053  0.23639447  0.38949349  1
  N  N6  1  0.10363396  0.26343220  0.90065587  1
  N  N7  1  0.89083215  0.26359244  0.11050340  1
  N  N8  1  0.60889075  0.73645168  0.61056412  1
  N  N9  1  0.39750710  0.73645978  0.39925483  1
  N  N10  1  0.10883931  0.76355549  0.88945214  1
  N  N11  1  0.89743333  0.76353467  0.10072239  1
  H  H12  1  0.49002523  0.39847571  0.50024376  1
  H  H13  1  0.68190217  0.29266031  0.67319388  1
  H  H14  1  0.61122277  0.13903617  0.61562002  1
  H  H15  1  0.30836471  0.29291644  0.31991826  1
  H  H16  1  0.39015168  0.13953737  0.36667256  1
  H  H17  1  0.99003927  0.10152000  0.99974720  1
  H  H18  1  0.18196162  0.20734037  0.82685251  1
  H  H19  1  0.11130817  0.36096602  0.88444401  1
  H  H20  1  0.80837420  0.20708191  0.18006309  1
  H  H21  1  0.89019841  0.36046027  0.13335268  1
  H  H22  1  0.50823019  0.89853308  0.49924910  1
  H  H23  1  0.68219609  0.79313490  0.68884133  1
  H  H24  1  0.62603396  0.63899382  0.61785935  1
  H  H25  1  0.32692117  0.79243707  0.31716128  1
  H  H26  1  0.37498818  0.63952443  0.39909898  1
  H  H27  1  0.00820225  0.60147012  0.00074199  1
  H  H28  1  0.18217726  0.70688800  0.81117624  1
  H  H29  1  0.12598558  0.86102303  0.88215197  1
  H  H30  1  0.82686077  0.70754942  0.18280200  1
  H  H31  1  0.87490470  0.86046616  0.10086852  1
  Zn  Zn32  1  0.49368287  0.99998969  0.99626257  1
  Zn  Zn33  1  0.99370095  0.50002026  0.50376288  1
  Sr  Sr34  1  0.00045062  0.00001607  0.49712605  1
  Sr  Sr35  1  0.50045484  0.49999497  0.00287712  1
  Cl  Cl36  1  0.50061629  0.22135558  0.99587707  1
  Cl  Cl37  1  0.23184258  0.98651330  0.20750435  1
  Cl  Cl38  1  0.71068042  0.01244649  0.26848037  1
  Cl  Cl39  1  0.00058016  0.27865434  0.50414870  1
  Cl  Cl40  1  0.28991155  0.01333170  0.73000405  1
  Cl  Cl41  1  0.77013513  0.98778803  0.78641188  1
  Cl  Cl42  1  0.50228498  0.77870227  0.00258045  1
  Cl  Cl43  1  0.73183195  0.51348150  0.29250211  1
  Cl  Cl44  1  0.21068001  0.48755255  0.23150800  1
  Cl  Cl45  1  0.00232176  0.72130566  0.49738264  1
  Cl  Cl46  1  0.27012335  0.51222425  0.71359312  1
  Cl  Cl47  1  0.78989737  0.48667227  0.76999395  1
