# generated using pymatgen
data_ZnGeH10C2(N2Cl3)2
_symmetry_space_group_name_H-M   'P 1'
_cell_length_a   8.01852924
_cell_length_b   9.75750002
_cell_length_c   8.25369986
_cell_angle_alpha   90.07392393
_cell_angle_beta   90.00575240
_cell_angle_gamma   89.99999328
_symmetry_Int_Tables_number   1
_chemical_formula_structural   ZnGeH10C2(N2Cl3)2
_chemical_formula_sum   'Zn2 Ge2 H20 C4 N8 Cl12'
_cell_volume   645.77553291
_cell_formula_units_Z   2
loop_
 _symmetry_equiv_pos_site_id
 _symmetry_equiv_pos_as_xyz
  1  'x, y, z'
loop_
 _atom_site_type_symbol
 _atom_site_label
 _atom_site_symmetry_multiplicity
 _atom_site_fract_x
 _atom_site_fract_y
 _atom_site_fract_z
 _atom_site_occupancy
  C  C0  1  0.49561271  0.29748590  0.49205485  1
  C  C1  1  0.99562423  0.20251286  0.00795968  1
  C  C2  1  0.50350950  0.79202542  0.49729848  1
  C  C3  1  0.00349622  0.70796695  0.00270868  1
  N  N4  1  0.59744640  0.23574196  0.59192497  1
  N  N5  1  0.39312523  0.23886206  0.38983714  1
  N  N6  1  0.09744981  0.26425827  0.90810580  1
  N  N7  1  0.89317649  0.26113820  0.11019717  1
  N  N8  1  0.60998490  0.73214242  0.59388942  1
  N  N9  1  0.40207236  0.73221208  0.39472999  1
  N  N10  1  0.11001133  0.76785272  0.90610294  1
  N  N11  1  0.90208998  0.76779594  0.10521815  1
  H  H12  1  0.49672888  0.40878471  0.49387578  1
  H  H13  1  0.67139656  0.29343567  0.66642492  1
  H  H14  1  0.60848852  0.13220155  0.60206507  1
  H  H15  1  0.31682520  0.29980908  0.32081447  1
  H  H16  1  0.37717915  0.13549139  0.38083039  1
  H  H17  1  0.99670321  0.09121606  0.00610133  1
  H  H18  1  0.17137318  0.20655255  0.83357626  1
  H  H19  1  0.10853172  0.36779476  0.89798871  1
  H  H20  1  0.81689222  0.20020437  0.17919875  1
  H  H21  1  0.87727396  0.36450936  0.11921960  1
  H  H22  1  0.49901329  0.90325898  0.50190121  1
  H  H23  1  0.68166192  0.79139402  0.66883724  1
  H  H24  1  0.62466086  0.62882875  0.60256136  1
  H  H25  1  0.32331632  0.79256830  0.32773402  1
  H  H26  1  0.38986475  0.62898721  0.38110863  1
  H  H27  1  -0.00097660  0.59674533  0.99808873  1
  H  H28  1  0.18167959  0.70859792  0.83121541  1
  H  H29  1  0.12467815  0.87115633  0.89745249  1
  H  H30  1  0.82330934  0.70743878  0.17220798  1
  H  H31  1  0.88986615  0.87102094  0.11883597  1
  Zn  Zn32  1  0.48916524  0.99830130  0.08881015  1
  Zn  Zn33  1  0.98917439  0.50171467  0.41120507  1
  Ge  Ge34  1  0.00539854  0.00121823  0.52138616  1
  Ge  Ge35  1  0.50539900  0.49870058  0.97861605  1
  Cl  Cl36  1  0.49834478  0.20776664  0.96797694  1
  Cl  Cl37  1  0.22991395  0.98196506  0.21092702  1
  Cl  Cl38  1  0.70100723  0.01422095  0.27826276  1
  Cl  Cl39  1  0.99832958  0.29228352  0.53205499  1
  Cl  Cl40  1  0.24837518  0.01519258  0.68307683  1
  Cl  Cl41  1  0.82005764  0.98962903  0.74411864  1
  Cl  Cl42  1  0.51675135  0.78930597  0.96910047  1
  Cl  Cl43  1  0.72991464  0.51807058  0.28905379  1
  Cl  Cl44  1  0.20098535  0.48579346  0.22175543  1
  Cl  Cl45  1  0.01675182  0.71075179  0.53087540  1
  Cl  Cl46  1  0.32002761  0.51034669  0.75586906  1
  Cl  Cl47  1  0.74835751  0.48481105  0.81695038  1
