# generated using pymatgen
data_ZnGaH10C2(N2Cl3)2
_symmetry_space_group_name_H-M   'P 1'
_cell_length_a   7.84713593
_cell_length_b   10.50935391
_cell_length_c   7.85624172
_cell_angle_alpha   90.34280416
_cell_angle_beta   90.73875915
_cell_angle_gamma   90.39695758
_symmetry_Int_Tables_number   1
_chemical_formula_structural   ZnGaH10C2(N2Cl3)2
_chemical_formula_sum   'Zn2 Ga2 H20 C4 N8 Cl12'
_cell_volume   647.80977501
_cell_formula_units_Z   2
loop_
 _symmetry_equiv_pos_site_id
 _symmetry_equiv_pos_as_xyz
  1  'x, y, z'
loop_
 _atom_site_type_symbol
 _atom_site_label
 _atom_site_symmetry_multiplicity
 _atom_site_fract_x
 _atom_site_fract_y
 _atom_site_fract_z
 _atom_site_occupancy
  C  C0  1  0.49571271  0.28894290  0.49808948  1
  C  C1  1  0.99429492  0.20200390  0.00507493  1
  C  C2  1  0.49679086  0.79929899  0.50198919  1
  C  C3  1  0.00212556  0.71573534  0.99851279  1
  N  N4  1  0.59725428  0.23257063  0.60693677  1
  N  N5  1  0.38850612  0.23262845  0.39235286  1
  N  N6  1  0.10130628  0.25687390  0.90203503  1
  N  N7  1  0.89126310  0.25966221  0.10991114  1
  N  N8  1  0.60596174  0.74261124  0.60265475  1
  N  N9  1  0.39397885  0.74421184  0.39065206  1
  N  N10  1  0.10682339  0.77443035  0.89658556  1
  N  N11  1  0.90069854  0.76971223  0.10851948  1
  H  H12  1  0.50077278  0.39247800  0.49502502  1
  H  H13  1  0.67519036  0.28790282  0.68197421  1
  H  H14  1  0.59700588  0.13698610  0.63018159  1
  H  H15  1  0.32198171  0.28773993  0.30830331  1
  H  H16  1  0.38364184  0.13649976  0.37339897  1
  H  H17  1  0.98998620  0.09848301  0.00382886  1
  H  H18  1  0.17952256  0.20029576  0.83099485  1
  H  H19  1  0.11882365  0.35292475  0.89427558  1
  H  H20  1  0.80783446  0.20549015  0.17807399  1
  H  H21  1  0.88067788  0.35604665  0.11780030  1
  H  H22  1  0.48997353  0.90237444  0.51315986  1
  H  H23  1  0.67114236  0.79776807  0.68986565  1
  H  H24  1  0.62351628  0.64669179  0.60766937  1
  H  H25  1  0.32362750  0.80092841  0.31149451  1
  H  H26  1  0.39462983  0.64918185  0.36337440  1
  H  H27  1  0.99885684  0.61233974  0.99099541  1
  H  H28  1  0.18670097  0.72021658  0.82519160  1
  H  H29  1  0.12988923  0.87020964  0.89988722  1
  H  H30  1  0.81872949  0.71305341  0.17454976  1
  H  H31  1  0.88767121  0.86576918  0.12298745  1
  Zn  Zn32  1  0.53142459  0.95109571  0.04121059  1
  Zn  Zn33  1  0.04587141  0.49476827  0.43448833  1
  Ga  Ga34  1  0.02653181  0.99803795  0.51441062  1
  Ga  Ga35  1  0.53613016  0.48744579  0.97172236  1
  Cl  Cl36  1  0.49440544  0.27727266  0.00333847  1
  Cl  Cl37  1  0.26764768  0.98727355  0.16422377  1
  Cl  Cl38  1  0.69954521  0.01377276  0.26870944  1
  Cl  Cl39  1  0.98551466  0.30255719  0.51625159  1
  Cl  Cl40  1  0.27679996  0.02175361  0.71140998  1
  Cl  Cl41  1  0.71887515  0.98865483  0.82231533  1
  Cl  Cl42  1  0.49784723  0.73110154  0.99807065  1
  Cl  Cl43  1  0.67510555  0.51535143  0.23529243  1
  Cl  Cl44  1  0.21606918  0.48637226  0.20717935  1
  Cl  Cl45  1  0.99233132  0.68853326  0.51361208  1
  Cl  Cl46  1  0.31781769  0.51205700  0.77206736  1
  Cl  Cl47  1  0.76321139  0.49195316  0.79945644  1
