# generated using pymatgen
data_GaBiH10C2(N2Cl3)2
_symmetry_space_group_name_H-M   'P 1'
_cell_length_a   7.70584028
_cell_length_b   10.97882057
_cell_length_c   8.22732958
_cell_angle_alpha   90.20990658
_cell_angle_beta   89.98942191
_cell_angle_gamma   91.26074052
_symmetry_Int_Tables_number   1
_chemical_formula_structural   GaBiH10C2(N2Cl3)2
_chemical_formula_sum   'Ga2 Bi2 H20 C4 N8 Cl12'
_cell_volume   695.86744915
_cell_formula_units_Z   2
loop_
 _symmetry_equiv_pos_site_id
 _symmetry_equiv_pos_as_xyz
  1  'x, y, z'
loop_
 _atom_site_type_symbol
 _atom_site_label
 _atom_site_symmetry_multiplicity
 _atom_site_fract_x
 _atom_site_fract_y
 _atom_site_fract_z
 _atom_site_occupancy
  C  C0  1  0.49771479  0.29552094  0.49266746  1
  C  C1  1  0.96159833  0.28044075  0.00034924  1
  C  C2  1  0.53933769  0.71782889  0.50592581  1
  C  C3  1  0.00269546  0.70752284  0.99572038  1
  N  N4  1  0.59332725  0.24120397  0.60101477  1
  N  N5  1  0.39882752  0.24059788  0.38423764  1
  N  N6  1  0.08524886  0.28015607  0.89099852  1
  N  N7  1  0.93886352  0.19809750  0.11351366  1
  N  N8  1  0.55822402  0.80017199  0.62039201  1
  N  N9  1  0.41463510  0.71583976  0.39746161  1
  N  N10  1  0.10416786  0.76310736  0.89061290  1
  N  N11  1  0.90568425  0.76078475  0.10461464  1
  H  H12  1  0.50040153  0.39482375  0.49317288  1
  H  H13  1  0.66995272  0.29347415  0.67591329  1
  H  H14  1  0.59869749  0.14886272  0.61107661  1
  H  H15  1  0.32661097  0.29278819  0.30845900  1
  H  H16  1  0.38581385  0.14808778  0.37439670  1
  H  H17  1  0.02244634  0.12764142  0.13112179  1
  H  H18  1  0.18004213  0.21663650  0.88769774  1
  H  H19  1  0.09794793  0.35114651  0.81171259  1
  H  H20  1  0.83847398  0.20489360  0.19307711  1
  H  H21  1  0.87000813  0.35453339  0.99577350  1
  H  H22  1  0.47315670  0.87014437  0.63638980  1
  H  H23  1  0.66035059  0.79679955  0.69838301  1
  H  H24  1  0.63493442  0.64618636  0.49963923  1
  H  H25  1  0.31762684  0.77770389  0.39584038  1
  H  H26  1  0.40342272  0.64497515  0.31724946  1
  H  H27  1  0.99871331  0.60823863  0.99265213  1
  H  H28  1  0.17542631  0.71108480  0.81325663  1
  H  H29  1  0.11740853  0.85557335  0.88259705  1
  H  H30  1  0.82675840  0.70748983  0.17566862  1
  H  H31  1  0.89982439  0.85292611  0.11741595  1
  Ga  Ga32  1  0.51013312  0.99823229  0.02725121  1
  Ga  Ga33  1  0.00097977  0.49963701  0.47594284  1
  Bi  Bi34  1  0.99407756  0.00197271  0.51837877  1
  Bi  Bi35  1  0.49703976  0.49834250  0.97861320  1
  Cl  Cl36  1  0.50260085  0.25017186  0.99126987  1
  Cl  Cl37  1  0.19993729  0.98772310  0.23548553  1
  Cl  Cl38  1  0.70415107  0.00069153  0.32802678  1
  Cl  Cl39  1  0.99876434  0.24503940  0.50249468  1
  Cl  Cl40  1  0.28763591  0.01369973  0.70827237  1
  Cl  Cl41  1  0.81535732  0.00116090  0.79814787  1
  Cl  Cl42  1  0.50183881  0.74024844  0.00505146  1
  Cl  Cl43  1  0.72105273  0.50132108  0.23470116  1
  Cl  Cl44  1  0.23490879  0.48341335  0.19998794  1
  Cl  Cl45  1  0.99622057  0.75729113  0.50480713  1
  Cl  Cl46  1  0.27503886  0.51752502  0.72230175  1
  Cl  Cl47  1  0.76194065  0.49831017  0.76037010  1
