# generated using pymatgen
data_BaH6CI3N
_symmetry_space_group_name_H-M   'P 1'
_cell_length_a   9.20980331
_cell_length_b   13.10408586
_cell_length_c   8.75010053
_cell_angle_alpha   89.99972003
_cell_angle_beta   90.00849548
_cell_angle_gamma   90.00250087
_symmetry_Int_Tables_number   1
_chemical_formula_structural   BaH6CI3N
_chemical_formula_sum   'Ba4 H24 C4 I12 N4'
_cell_volume   1056.01508528
_cell_formula_units_Z   4
loop_
 _symmetry_equiv_pos_site_id
 _symmetry_equiv_pos_as_xyz
  1  'x, y, z'
loop_
 _atom_site_type_symbol
 _atom_site_label
 _atom_site_symmetry_multiplicity
 _atom_site_fract_x
 _atom_site_fract_y
 _atom_site_fract_z
 _atom_site_occupancy
  C  C0  1  0.39410653  0.24999724  0.42401889  1
  C  C1  1  0.89426840  0.24998790  0.07598584  1
  C  C2  1  0.60588024  0.75000041  0.57593840  1
  C  C3  1  0.10572483  0.74999638  0.92399907  1
  N  N4  1  0.53022756  0.24999696  0.51534086  1
  N  N5  1  0.03038169  0.24998547  0.98468892  1
  N  N6  1  0.46976860  0.74999262  0.48460093  1
  N  N7  1  0.96963057  0.74999953  0.01532541  1
  H  H8  1  0.42227234  0.24999564  0.30228015  1
  H  H9  1  0.33199892  0.18117110  0.45177801  1
  H  H10  1  0.33200289  0.31881924  0.45178163  1
  H  H11  1  0.59215163  0.18547509  0.48905596  1
  H  H12  1  0.59215457  0.31452573  0.48907331  1
  H  H13  1  0.50901975  0.24999299  0.63278247  1
  H  H14  1  0.92245150  0.24999714  0.19772858  1
  H  H15  1  0.83216185  0.18116022  0.04821728  1
  H  H16  1  0.83216530  0.31880848  0.04819443  1
  H  H17  1  0.09230176  0.18545919  0.01097361  1
  H  H18  1  0.09231610  0.31450782  0.01097516  1
  H  H19  1  0.00915725  0.24998835  0.86724359  1
  H  H20  1  0.57769870  0.74999934  0.69767290  1
  H  H21  1  0.66798692  0.68117846  0.54818253  1
  H  H22  1  0.66798708  0.81882636  0.54817885  1
  H  H23  1  0.40783591  0.81451207  0.51087349  1
  H  H24  1  0.40784470  0.68546577  0.51088442  1
  H  H25  1  0.49098270  0.74999130  0.36716092  1
  H  H26  1  0.07751662  0.75000552  0.80226223  1
  H  H27  1  0.16784838  0.81881662  0.95176594  1
  H  H28  1  0.16782642  0.68116875  0.95175280  1
  H  H29  1  0.90769948  0.81451991  0.98904588  1
  H  H30  1  0.90769827  0.68546938  0.98905697  1
  H  H31  1  0.99087074  0.75000230  0.13276654  1
  Ba  Ba32  1  0.50000124  0.99999948  0.99993049  1
  Ba  Ba33  1  0.00004786  0.50005930  0.50014818  1
  Ba  Ba34  1  0.99997698  0.00004640  0.49998022  1
  Ba  Ba35  1  0.50002019  0.49997940  0.00016011  1
  I  I36  1  0.44950895  0.25000339  0.91429598  1
  I  I37  1  0.16891476  0.02778208  0.16030076  1
  I  I38  1  0.66881254  0.02789890  0.33967721  1
  I  I39  1  0.94956041  0.25003739  0.58570442  1
  I  I40  1  0.33114913  0.97208537  0.66024259  1
  I  I41  1  0.83114715  0.97221065  0.83969792  1
  I  I42  1  0.55046317  0.75000911  0.08563518  1
  I  I43  1  0.66883766  0.47222337  0.33993782  1
  I  I44  1  0.16886709  0.47221430  0.16038961  1
  I  I45  1  0.05040611  0.75003641  0.41433086  1
  I  I46  1  0.33122410  0.52793134  0.66040195  1
  I  I47  1  0.83114823  0.52774810  0.83987732  1
