# generated using pymatgen
data_ZnHgH12C2(I3N)2
_symmetry_space_group_name_H-M   'P 1'
_cell_length_a   7.36936112
_cell_length_b   13.26449343
_cell_length_c   8.71859050
_cell_angle_alpha   90.41891447
_cell_angle_beta   89.99816708
_cell_angle_gamma   89.99228323
_symmetry_Int_Tables_number   1
_chemical_formula_structural   ZnHgH12C2(I3N)2
_chemical_formula_sum   'Zn2 Hg2 H24 C4 I12 N4'
_cell_volume   852.22677666
_cell_formula_units_Z   2
loop_
 _symmetry_equiv_pos_site_id
 _symmetry_equiv_pos_as_xyz
  1  'x, y, z'
loop_
 _atom_site_type_symbol
 _atom_site_label
 _atom_site_symmetry_multiplicity
 _atom_site_fract_x
 _atom_site_fract_y
 _atom_site_fract_z
 _atom_site_occupancy
  C  C0  1  0.39554982  0.24723137  0.35052083  1
  C  C1  1  0.89659871  0.24709032  0.14910858  1
  C  C2  1  0.60308191  0.74694905  0.64929549  1
  C  C3  1  0.10474214  0.74730541  0.85068891  1
  N  N4  1  0.50269563  0.26621195  0.49174615  1
  N  N5  1  0.00405562  0.26583001  0.00823819  1
  N  N6  1  0.49578868  0.76599004  0.50843492  1
  N  N7  1  0.99747484  0.76606126  0.99192586  1
  H  H8  1  0.48635266  0.24854221  0.25105540  1
  H  H9  1  0.33013615  0.17342099  0.35902678  1
  H  H10  1  0.29448657  0.30734451  0.33977223  1
  H  H11  1  0.60988582  0.21600313  0.50318737  1
  H  H12  1  0.56001149  0.33833375  0.48839290  1
  H  H13  1  0.42605750  0.26029771  0.59152281  1
  H  H14  1  0.98703562  0.24882326  0.24878689  1
  H  H15  1  0.83084236  0.17335450  0.13919723  1
  H  H16  1  0.79550098  0.30721162  0.16074036  1
  H  H17  1  0.11142025  0.21565545  0.99590553  1
  H  H18  1  0.06011320  0.33806830  0.01258734  1
  H  H19  1  0.92707943  0.25981953  0.90840862  1
  H  H20  1  0.51264442  0.74888857  0.74897270  1
  H  H21  1  0.66829821  0.67305649  0.63935235  1
  H  H22  1  0.70462136  0.80682052  0.66096014  1
  H  H23  1  0.44003089  0.83831216  0.51293423  1
  H  H24  1  0.38818755  0.71599918  0.49595128  1
  H  H25  1  0.57278701  0.75994926  0.40861905  1
  H  H26  1  0.01392089  0.74842763  0.75123320  1
  H  H27  1  0.20536951  0.80763017  0.83992842  1
  H  H28  1  0.17068977  0.67363230  0.85918954  1
  H  H29  1  0.93984779  0.83811184  0.98865642  1
  H  H30  1  0.89052259  0.71570461  0.00326484  1
  H  H31  1  0.07411244  0.76018501  0.09170522  1
  Zn  Zn32  1  0.56719528  0.94104728  0.09721268  1
  Zn  Zn33  1  0.93284552  0.44112955  0.59744067  1
  Hg  Hg34  1  0.06900546  0.94517799  0.40598731  1
  Hg  Hg35  1  0.43100201  0.44509424  0.90616754  1
  I  I36  1  0.47991776  0.23607470  0.89270559  1
  I  I37  1  0.22810020  0.01322745  0.11385084  1
  I  I38  1  0.70161675  0.01448637  0.36422537  1
  I  I39  1  0.97282772  0.24620133  0.60564575  1
  I  I40  1  0.28549410  0.99836769  0.64900266  1
  I  I41  1  0.77131000  0.99226015  0.87085367  1
  I  I42  1  0.52730824  0.74613588  0.10583278  1
  I  I43  1  0.72868091  0.49246599  0.37116090  1
  I  I44  1  0.21449623  0.49826865  0.14919730  1
  I  I45  1  0.02003759  0.73615685  0.39296355  1
  I  I46  1  0.27182545  0.51335159  0.61413951  1
  I  I47  1  0.79841868  0.51437042  0.86460068  1
