# generated using pymatgen
data_GaH10PbC2(N2Cl3)2
_symmetry_space_group_name_H-M   'P 1'
_cell_length_a   8.08083661
_cell_length_b   10.80847434
_cell_length_c   8.06103075
_cell_angle_alpha   91.85009349
_cell_angle_beta   89.62961865
_cell_angle_gamma   91.76142384
_symmetry_Int_Tables_number   1
_chemical_formula_structural   GaH10PbC2(N2Cl3)2
_chemical_formula_sum   'Ga2 H20 Pb2 C4 N8 Cl12'
_cell_volume   703.35256273
_cell_formula_units_Z   2
loop_
 _symmetry_equiv_pos_site_id
 _symmetry_equiv_pos_as_xyz
  1  'x, y, z'
loop_
 _atom_site_type_symbol
 _atom_site_label
 _atom_site_symmetry_multiplicity
 _atom_site_fract_x
 _atom_site_fract_y
 _atom_site_fract_z
 _atom_site_occupancy
  C  C0  1  0.51137270  0.29489540  0.50138532  1
  C  C1  1  0.01590547  0.22723834  0.01119588  1
  C  C2  1  0.49631293  0.77429541  0.54084486  1
  C  C3  1  0.00086595  0.69863827  0.99357329  1
  N  N4  1  0.58818284  0.23406824  0.61470681  1
  N  N5  1  0.38691843  0.25064837  0.41146737  1
  N  N6  1  0.08911871  0.25904524  0.87254780  1
  N  N7  1  0.89285159  0.28542764  0.08224119  1
  N  N8  1  0.64281406  0.74330831  0.59339866  1
  N  N9  1  0.41390752  0.71708540  0.42006260  1
  N  N10  1  0.09751890  0.74598247  0.87903338  1
  N  N11  1  0.89488653  0.76075346  0.08512796  1
  H  H12  1  0.55656082  0.38899907  0.47776954  1
  H  H13  1  0.68030523  0.28022420  0.68027738  1
  H  H14  1  0.54977050  0.14786877  0.64950794  1
  H  H15  1  0.33055959  0.30807885  0.33152543  1
  H  H16  1  0.33165789  0.16657856  0.43404107  1
  H  H17  1  0.06178359  0.14647590  0.07231900  1
  H  H18  1  0.17758240  0.20345135  0.82158186  1
  H  H19  1  0.05820538  0.33578823  0.81062991  1
  H  H20  1  0.85763257  0.26207011  0.19935340  1
  H  H21  1  0.84337585  0.36097728  0.02985865  1
  H  H22  1  0.43836943  0.85366819  0.60284100  1
  H  H23  1  0.70115710  0.79812779  0.68247542  1
  H  H24  1  0.70694372  0.67355608  0.53674212  1
  H  H25  1  0.29149793  0.73777533  0.40430256  1
  H  H26  1  0.45687261  0.63792119  0.36388272  1
  H  H27  1  0.01034853  0.59993684  0.01495393  1
  H  H28  1  0.16597817  0.68702431  0.80577068  1
  H  H29  1  0.09851355  0.83777498  0.85247793  1
  H  H30  1  0.83115508  0.71479982  0.17582425  1
  H  H31  1  0.87396767  0.85205412  0.06658892  1
  Ga  Ga32  1  0.47058502  0.00198374  0.10756320  1
  Ga  Ga33  1  0.01359252  0.49479932  0.47571434  1
  Pb  Pb34  1  0.97668605  0.99844346  0.53064334  1
  Pb  Pb35  1  0.50026937  0.54712338  0.97831075  1
  Cl  Cl36  1  0.49447234  0.18437211  0.99794600  1
  Cl  Cl37  1  0.21679539  0.98193111  0.21415342  1
  Cl  Cl38  1  0.66300875  0.99339282  0.30098925  1
  Cl  Cl39  1  0.98160149  0.24528274  0.46093156  1
  Cl  Cl40  1  0.27008219  0.02440596  0.68732759  1
  Cl  Cl41  1  0.82322010  0.98460270  0.82579134  1
  Cl  Cl42  1  0.48695147  0.82397690  0.95981430  1
  Cl  Cl43  1  0.70243502  0.53365601  0.26973475  1
  Cl  Cl44  1  0.24880071  0.47504838  0.18958041  1
  Cl  Cl45  1  0.03121175  0.74888287  0.47550318  1
  Cl  Cl46  1  0.28863985  0.50825113  0.71445699  1
  Cl  Cl47  1  0.77877407  0.46937278  0.79333550  1
