# generated using pymatgen
data_TlGaH10C2(N2Cl3)2
_symmetry_space_group_name_H-M   'P 1'
_cell_length_a   7.87391957
_cell_length_b   10.80704225
_cell_length_c   7.85678163
_cell_angle_alpha   89.63658880
_cell_angle_beta   89.99934081
_cell_angle_gamma   90.00058102
_symmetry_Int_Tables_number   1
_chemical_formula_structural   TlGaH10C2(N2Cl3)2
_chemical_formula_sum   'Tl2 Ga2 H20 C4 N8 Cl12'
_cell_volume   668.54981075
_cell_formula_units_Z   2
loop_
 _symmetry_equiv_pos_site_id
 _symmetry_equiv_pos_as_xyz
  1  'x, y, z'
loop_
 _atom_site_type_symbol
 _atom_site_label
 _atom_site_symmetry_multiplicity
 _atom_site_fract_x
 _atom_site_fract_y
 _atom_site_fract_z
 _atom_site_occupancy
  C  C0  1  0.49486845  0.29267101  0.49606785  1
  C  C1  1  0.99489769  0.20733326  0.00395636  1
  C  C2  1  0.50493609  0.79269875  0.50303730  1
  C  C3  1  0.00489691  0.70730698  0.99694353  1
  N  N4  1  0.60385204  0.23766901  0.59730816  1
  N  N5  1  0.39029363  0.23785326  0.39097649  1
  N  N6  1  0.10391726  0.26232132  0.90272878  1
  N  N7  1  0.89032581  0.26214171  0.10903154  1
  N  N8  1  0.60734327  0.73778023  0.61101829  1
  N  N9  1  0.39942679  0.73776232  0.39899231  1
  N  N10  1  0.10728919  0.76222943  0.88898822  1
  N  N11  1  0.89934222  0.76223372  0.10098762  1
  H  H12  1  0.49042304  0.39334037  0.49977760  1
  H  H13  1  0.68308540  0.29110340  0.66885731  1
  H  H14  1  0.61025163  0.14412554  0.61496777  1
  H  H15  1  0.30670316  0.29169219  0.32407993  1
  H  H16  1  0.38994888  0.14498126  0.36750416  1
  H  H17  1  0.99043788  0.10665335  0.00022729  1
  H  H18  1  0.18313616  0.20889520  0.83119869  1
  H  H19  1  0.11032536  0.35586860  0.88509587  1
  H  H20  1  0.80671496  0.20831471  0.17591110  1
  H  H21  1  0.89000008  0.35501790  0.13251058  1
  H  H22  1  0.50803253  0.89341467  0.49920393  1
  H  H23  1  0.67802989  0.79175597  0.69036970  1
  H  H24  1  0.62584768  0.64430251  0.61764414  1
  H  H25  1  0.33099816  0.79112485  0.31602537  1
  H  H26  1  0.37634995  0.64478928  0.39958157  1
  H  H27  1  0.00799894  0.60658354  0.00080039  1
  H  H28  1  0.17801592  0.70826462  0.80963945  1
  H  H29  1  0.12578630  0.85571974  0.88236412  1
  H  H30  1  0.83093277  0.70886918  0.18393209  1
  H  H31  1  0.87626602  0.85519322  0.10037406  1
  Ga  Ga32  1  0.49913058  0.00002437  0.99773251  1
  Ga  Ga33  1  0.99913181  0.49998280  0.50227203  1
  Tl  Tl34  1  0.00057122  0.00004633  0.49638598  1
  Tl  Tl35  1  0.50057573  0.49996343  0.00361148  1
  Cl  Cl36  1  0.49969887  0.21406584  0.99469695  1
  Cl  Cl37  1  0.25267800  0.99076768  0.18568178  1
  Cl  Cl38  1  0.68682243  0.00993914  0.24596743  1
  Cl  Cl39  1  0.99967230  0.28594047  0.50533616  1
  Cl  Cl40  1  0.31215612  0.00858797  0.75073875  1
  Cl  Cl41  1  0.74715421  0.99092516  0.81029363  1
  Cl  Cl42  1  0.50145619  0.78602126  0.00296796  1
  Cl  Cl43  1  0.75266897  0.50922915  0.31432149  1
  Cl  Cl44  1  0.18681684  0.49005295  0.25402736  1
  Cl  Cl45  1  0.00150659  0.71398514  0.49699512  1
  Cl  Cl46  1  0.24715172  0.50909061  0.68971712  1
  Cl  Cl47  1  0.81215370  0.49142959  0.74925740  1
