# generated using pymatgen
data_GaH10AuC2(N2Cl3)2
_symmetry_space_group_name_H-M   'P 1'
_cell_length_a   7.87409476
_cell_length_b   10.92424169
_cell_length_c   7.51634444
_cell_angle_alpha   89.57351403
_cell_angle_beta   90.00061390
_cell_angle_gamma   90.00660292
_symmetry_Int_Tables_number   1
_chemical_formula_structural   GaH10AuC2(N2Cl3)2
_chemical_formula_sum   'Ga2 H20 Au2 C4 N8 Cl12'
_cell_volume   646.52686560
_cell_formula_units_Z   2
loop_
 _symmetry_equiv_pos_site_id
 _symmetry_equiv_pos_as_xyz
  1  'x, y, z'
loop_
 _atom_site_type_symbol
 _atom_site_label
 _atom_site_symmetry_multiplicity
 _atom_site_fract_x
 _atom_site_fract_y
 _atom_site_fract_z
 _atom_site_occupancy
  C  C0  1  0.49857616  0.29067478  0.49741450  1
  C  C1  1  0.99851212  0.20934126  0.00261535  1
  C  C2  1  0.49954612  0.78976475  0.50159208  1
  C  C3  1  0.99951014  0.71024330  0.99848264  1
  N  N4  1  0.61587230  0.23774828  0.59440369  1
  N  N5  1  0.38606417  0.23456757  0.39898473  1
  N  N6  1  0.11586319  0.26227146  0.90565086  1
  N  N7  1  0.88606760  0.26541640  0.10106724  1
  N  N8  1  0.60979974  0.73444993  0.60484491  1
  N  N9  1  0.38873382  0.73625949  0.39805160  1
  N  N10  1  0.10970732  0.76557522  0.89513874  1
  N  N11  1  0.88869565  0.76373302  0.10199275  1
  H  H12  1  0.49419233  0.39033941  0.49848102  1
  H  H13  1  0.69570113  0.29205260  0.66630657  1
  H  H14  1  0.63317005  0.14526917  0.60329550  1
  H  H15  1  0.30145478  0.28653991  0.32863170  1
  H  H16  1  0.37658836  0.14175187  0.38917842  1
  H  H17  1  0.99407204  0.10966913  0.00145927  1
  H  H18  1  0.19563680  0.20797779  0.83371704  1
  H  H19  1  0.13317393  0.35474273  0.89679141  1
  H  H20  1  0.80138526  0.21344716  0.17137495  1
  H  H21  1  0.87659475  0.35825527  0.11091707  1
  H  H22  1  0.50008591  0.88948010  0.50193282  1
  H  H23  1  0.68935288  0.78730006  0.67914550  1
  H  H24  1  0.61951405  0.64168390  0.61833470  1
  H  H25  1  0.31001902  0.79035322  0.32341854  1
  H  H26  1  0.37776662  0.64372288  0.38444877  1
  H  H27  1  1.00011004  0.61052825  0.99824929  1
  H  H28  1  0.18924328  0.71274036  0.82083745  1
  H  H29  1  0.11933180  0.85833024  0.88154099  1
  H  H30  1  0.80997923  0.70962033  0.17663793  1
  H  H31  1  0.87762133  0.85627894  0.11547600  1
  Ga  Ga32  1  0.49634190  0.01312905  0.00191389  1
  Ga  Ga33  1  0.99703376  0.48684917  0.49871489  1
  Au  Au34  1  0.00286047  0.98814414  0.49503410  1
  Au  Au35  1  0.50250359  0.51186096  0.00458741  1
  Cl  Cl36  1  0.50231668  0.21819788  0.99675896  1
  Cl  Cl37  1  0.19008225  0.98318973  0.25272087  1
  Cl  Cl38  1  0.68609600  0.01507266  0.24100574  1
  Cl  Cl39  1  0.00236706  0.28177504  0.50333613  1
  Cl  Cl40  1  0.31193747  0.01695214  0.75832286  1
  Cl  Cl41  1  0.81464982  0.98385591  0.73568779  1
  Cl  Cl42  1  0.49970921  0.80886692  0.99943998  1
  Cl  Cl43  1  0.68973814  0.51680506  0.24680029  1
  Cl  Cl44  1  0.18626938  0.48491890  0.25918411  1
  Cl  Cl45  1  0.99969022  0.69112180  0.50049565  1
  Cl  Cl46  1  0.31433217  0.51615779  0.76382259  1
  Cl  Cl47  1  0.81214933  0.48303704  0.74186544  1
