# generated using pymatgen
data_GaH10IrC2(N2Cl3)2
_symmetry_space_group_name_H-M   'P 1'
_cell_length_a   7.76601779
_cell_length_b   10.50343727
_cell_length_c   7.74913311
_cell_angle_alpha   90.31298753
_cell_angle_beta   90.00014052
_cell_angle_gamma   89.99875550
_symmetry_Int_Tables_number   1
_chemical_formula_structural   GaH10IrC2(N2Cl3)2
_chemical_formula_sum   'Ga2 H20 Ir2 C4 N8 Cl12'
_cell_volume   632.08643127
_cell_formula_units_Z   2
loop_
 _symmetry_equiv_pos_site_id
 _symmetry_equiv_pos_as_xyz
  1  'x, y, z'
loop_
 _atom_site_type_symbol
 _atom_site_label
 _atom_site_symmetry_multiplicity
 _atom_site_fract_x
 _atom_site_fract_y
 _atom_site_fract_z
 _atom_site_occupancy
  C  C0  1  0.49519733  0.29366435  0.49676979  1
  C  C1  1  0.99522557  0.20633590  0.00324940  1
  C  C2  1  0.50509796  0.79369693  0.50394700  1
  C  C3  1  0.00503330  0.70630799  0.99605429  1
  N  N4  1  0.60232730  0.23719322  0.60179219  1
  N  N5  1  0.39143159  0.23699496  0.38791590  1
  N  N6  1  0.10238560  0.26280618  0.89826002  1
  N  N7  1  0.89148574  0.26301322  0.11207657  1
  N  N8  1  0.61065827  0.73715964  0.61034592  1
  N  N9  1  0.39516339  0.73712905  0.40122724  1
  N  N10  1  0.11061847  0.76285868  0.88965639  1
  N  N11  1  0.89509325  0.76287016  0.09873932  1
  H  H12  1  0.49189490  0.39715561  0.50046569  1
  H  H13  1  0.67312892  0.29180011  0.68483908  1
  H  H14  1  0.62397217  0.14140915  0.60282501  1
  H  H15  1  0.31775131  0.29207805  0.30880446  1
  H  H16  1  0.37439256  0.14076801  0.38015388  1
  H  H17  1  0.99190460  0.10283911  0.99951495  1
  H  H18  1  0.17319402  0.20818266  0.81519310  1
  H  H19  1  0.12406222  0.35857073  0.89724490  1
  H  H20  1  0.81775485  0.20791817  0.19119020  1
  H  H21  1  0.87444708  0.35922714  0.11987624  1
  H  H22  1  0.50939723  0.89715882  0.50039096  1
  H  H23  1  0.69419969  0.79216167  0.68004006  1
  H  H24  1  0.61239702  0.64143342  0.63233829  1
  H  H25  1  0.31597061  0.79177913  0.32701178  1
  H  H26  1  0.38754201  0.64089286  0.38482369  1
  H  H27  1  0.00936187  0.60284678  0.99958845  1
  H  H28  1  0.19417309  0.70785765  0.81997841  1
  H  H29  1  0.11234207  0.85857589  0.86768319  1
  H  H30  1  0.81589042  0.70821171  0.17294724  1
  H  H31  1  0.88744892  0.85910726  0.11515643  1
  Ga  Ga32  1  0.49747785  0.99996594  0.99670525  1
  Ga  Ga33  1  0.99749846  0.50004689  0.50331493  1
  Ir  Ir34  1  0.00034278  0.99997266  0.49808347  1
  Ir  Ir35  1  0.50033800  0.50003539  0.00191610  1
  Cl  Cl36  1  0.49931108  0.27428028  0.99737690  1
  Cl  Cl37  1  0.18628216  0.99071327  0.25354239  1
  Cl  Cl38  1  0.75635098  0.00797590  0.31166488  1
  Cl  Cl39  1  0.99926925  0.22572853  0.50266168  1
  Cl  Cl40  1  0.24458305  0.00949965  0.68400425  1
  Cl  Cl41  1  0.81448793  0.99159369  0.74256096  1
  Cl  Cl42  1  0.50071125  0.72580601  0.00493332  1
  Cl  Cl43  1  0.68628205  0.50929398  0.24645553  1
  Cl  Cl44  1  0.25634191  0.49203900  0.18832857  1
  Cl  Cl45  1  0.00074564  0.77420195  0.49502735  1
  Cl  Cl46  1  0.31448312  0.50840958  0.75743749  1
  Cl  Cl47  1  0.74457051  0.49049602  0.81599163  1
