# generated using pymatgen
data_HfGaH10C2(N2Cl3)2
_symmetry_space_group_name_H-M   'P 1'
_cell_length_a   7.99365482
_cell_length_b   10.84968586
_cell_length_c   7.75633376
_cell_angle_alpha   93.27426071
_cell_angle_beta   87.32781609
_cell_angle_gamma   90.51613269
_symmetry_Int_Tables_number   1
_chemical_formula_structural   HfGaH10C2(N2Cl3)2
_chemical_formula_sum   'Hf2 Ga2 H20 C4 N8 Cl12'
_cell_volume   670.85432400
_cell_formula_units_Z   2
loop_
 _symmetry_equiv_pos_site_id
 _symmetry_equiv_pos_as_xyz
  1  'x, y, z'
loop_
 _atom_site_type_symbol
 _atom_site_label
 _atom_site_symmetry_multiplicity
 _atom_site_fract_x
 _atom_site_fract_y
 _atom_site_fract_z
 _atom_site_occupancy
  C  C0  1  0.48898510  0.31596084  0.50321268  1
  C  C1  1  0.98111790  0.28194311  0.97057178  1
  C  C2  1  0.53745874  0.72757112  0.56286608  1
  C  C3  1  0.01033088  0.71361944  0.98750580  1
  N  N4  1  0.58812504  0.26795767  0.61116285  1
  N  N5  1  0.38428634  0.25369120  0.40576639  1
  N  N6  1  0.12764294  0.25510719  0.89479267  1
  N  N7  1  0.90252873  0.21456467  0.08365623  1
  N  N8  1  0.59384528  0.78795838  0.69864545  1
  N  N9  1  0.40605702  0.76053759  0.47795026  1
  N  N10  1  0.11776321  0.76886712  0.88401312  1
  N  N11  1  0.88738213  0.76731259  0.08012698  1
  H  H12  1  0.49426584  0.41588243  0.49178742  1
  H  H13  1  0.65641828  0.32715348  0.68855588  1
  H  H14  1  0.59416416  0.17562364  0.62654099  1
  H  H15  1  0.31549891  0.30030836  0.32305004  1
  H  H16  1  0.36922327  0.16033571  0.40765305  1
  H  H17  1  0.95584884  0.13741151  0.12667505  1
  H  H18  1  0.19634454  0.18203612  0.92705680  1
  H  H19  1  0.18952900  0.32231298  0.82894916  1
  H  H20  1  0.78468357  0.23862465  0.12818077  1
  H  H21  1  0.91841331  0.36531275  0.93496717  1
  H  H22  1  0.35020905  0.84415556  0.50453351  1
  H  H23  1  0.68965084  0.74014653  0.74659816  1
  H  H24  1  0.59725759  0.64178569  0.51083983  1
  H  H25  1  0.38411846  0.71365614  0.36363752  1
  H  H26  1  0.46995033  0.53541121  0.29842973  1
  H  H27  1  0.02435939  0.61431074  0.99770988  1
  H  H28  1  0.20919027  0.71551289  0.82143403  1
  H  H29  1  0.11122672  0.86050777  0.86249130  1
  H  H30  1  0.81325638  0.71321563  0.15633551  1
  H  H31  1  0.87116552  0.86047792  0.09158039  1
  Ga  Ga32  1  0.51751912  0.93767739  0.87617336  1
  Ga  Ga33  1  0.02012318  0.51190218  0.51581954  1
  Hf  Hf34  1  0.98326602  0.00825688  0.48725367  1
  Hf  Hf35  1  0.49635802  0.50273895  0.06598611  1
  Cl  Cl36  1  0.51411216  0.27775797  0.02128116  1
  Cl  Cl37  1  0.15316487  0.00414678  0.21280805  1
  Cl  Cl38  1  0.71957569  0.00287753  0.34624505  1
  Cl  Cl39  1  0.98009853  0.23212420  0.49598243  1
  Cl  Cl40  1  0.25825355  0.02192321  0.63600235  1
  Cl  Cl41  1  0.85655228  0.01154662  0.78130323  1
  Cl  Cl42  1  0.47869015  0.72823779  0.07745094  1
  Cl  Cl43  1  0.77179563  0.50158772  0.21955083  1
  Cl  Cl44  1  0.19741019  0.46956322  0.18484673  1
  Cl  Cl45  1  0.99339868  0.78513237  0.48110262  1
  Cl  Cl46  1  0.31185639  0.51092618  0.79047887  1
  Cl  Cl47  1  0.72754734  0.51439135  0.81054335  1
