# generated using pymatgen
data_GaSbH10C2(N2Cl3)2
_symmetry_space_group_name_H-M   'P 1'
_cell_length_a   7.92054015
_cell_length_b   10.86443339
_cell_length_c   7.90370647
_cell_angle_alpha   90.18232544
_cell_angle_beta   90.00104259
_cell_angle_gamma   89.99991287
_symmetry_Int_Tables_number   1
_chemical_formula_structural   GaSbH10C2(N2Cl3)2
_chemical_formula_sum   'Ga2 Sb2 H20 C4 N8 Cl12'
_cell_volume   680.12773493
_cell_formula_units_Z   2
loop_
 _symmetry_equiv_pos_site_id
 _symmetry_equiv_pos_as_xyz
  1  'x, y, z'
loop_
 _atom_site_type_symbol
 _atom_site_label
 _atom_site_symmetry_multiplicity
 _atom_site_fract_x
 _atom_site_fract_y
 _atom_site_fract_z
 _atom_site_occupancy
  C  C0  1  0.49431214  0.29265345  0.49647652  1
  C  C1  1  0.99435974  0.20733260  0.00353013  1
  C  C2  1  0.50573711  0.79265240  0.50358103  1
  C  C3  1  0.00568012  0.70735337  0.99640952  1
  N  N4  1  0.60034026  0.23786788  0.59876399  1
  N  N5  1  0.39230309  0.23798007  0.38979562  1
  N  N6  1  0.10042212  0.26212642  0.90127772  1
  N  N7  1  0.89233930  0.26201642  0.11021362  1
  N  N8  1  0.60888897  0.73801995  0.60882364  1
  N  N9  1  0.39831683  0.73780413  0.40238202  1
  N  N10  1  0.10884020  0.76199188  0.89118960  1
  N  N11  1  0.89823217  0.76219585  0.09758949  1
  H  H12  1  0.49033380  0.39280518  0.50086984  1
  H  H13  1  0.67351068  0.29054930  0.67687139  1
  H  H14  1  0.61518179  0.14475680  0.60460551  1
  H  H15  1  0.31574945  0.29131182  0.31611843  1
  H  H16  1  0.38388526  0.14479878  0.37539960  1
  H  H17  1  0.99035423  0.10718973  0.99911125  1
  H  H18  1  0.17358496  0.20944236  0.82317781  1
  H  H19  1  0.11528707  0.35523104  0.89547664  1
  H  H20  1  0.81576877  0.20868242  0.18385416  1
  H  H21  1  0.88394987  0.35519144  0.12461944  1
  H  H22  1  0.50995386  0.89277547  0.49952418  1
  H  H23  1  0.68704265  0.79138102  0.68118770  1
  H  H24  1  0.61601467  0.64491534  0.62375055  1
  H  H25  1  0.32403980  0.79044796  0.32573137  1
  H  H26  1  0.38443932  0.64465048  0.39482342  1
  H  H27  1  0.00991180  0.60723133  0.00046216  1
  H  H28  1  0.18701648  0.70863940  0.81884178  1
  H  H29  1  0.11595841  0.85509596  0.87627029  1
  H  H30  1  0.82395344  0.70954324  0.17421976  1
  H  H31  1  0.88433818  0.85534857  0.10514140  1
  Ga  Ga32  1  0.49970654  0.99997501  0.99810421  1
  Ga  Ga33  1  0.99971555  0.50003034  0.50190009  1
  Sb  Sb34  1  0.00094330  0.00001359  0.49772656  1
  Sb  Sb35  1  0.50093793  0.49999714  0.00227285  1
  Cl  Cl36  1  0.49850229  0.25930975  0.99529769  1
  Cl  Cl37  1  0.20794658  0.98633073  0.22964488  1
  Cl  Cl38  1  0.72895092  0.01499802  0.29145071  1
  Cl  Cl39  1  0.99845347  0.24071099  0.50474586  1
  Cl  Cl40  1  0.26673256  0.01384225  0.70393113  1
  Cl  Cl41  1  0.79574715  0.98468957  0.76773374  1
  Cl  Cl42  1  0.50149394  0.74068084  0.00483076  1
  Cl  Cl43  1  0.70793721  0.51368077  0.27036602  1
  Cl  Cl44  1  0.22892792  0.48500638  0.20854152  1
  Cl  Cl45  1  0.00152996  0.75934098  0.49512904  1
  Cl  Cl46  1  0.29574347  0.51531211  0.73226847  1
  Cl  Cl47  1  0.76670399  0.48616244  0.79607164  1
