# generated using pymatgen
data_InGaH10C2(N2Cl3)2
_symmetry_space_group_name_H-M   'P 1'
_cell_length_a   7.84651271
_cell_length_b   10.66439294
_cell_length_c   7.83074309
_cell_angle_alpha   90.22099609
_cell_angle_beta   90.00189834
_cell_angle_gamma   89.99783528
_symmetry_Int_Tables_number   1
_chemical_formula_structural   InGaH10C2(N2Cl3)2
_chemical_formula_sum   'In2 Ga2 H20 C4 N8 Cl12'
_cell_volume   655.25835328
_cell_formula_units_Z   2
loop_
 _symmetry_equiv_pos_site_id
 _symmetry_equiv_pos_as_xyz
  1  'x, y, z'
loop_
 _atom_site_type_symbol
 _atom_site_label
 _atom_site_symmetry_multiplicity
 _atom_site_fract_x
 _atom_site_fract_y
 _atom_site_fract_z
 _atom_site_occupancy
  C  C0  1  0.49473019  0.29296796  0.49671695  1
  C  C1  1  0.99477244  0.20703300  0.00329152  1
  C  C2  1  0.50524692  0.79294187  0.50380168  1
  C  C3  1  0.00519258  0.70706093  0.99618708  1
  N  N4  1  0.60127296  0.23728143  0.60039712  1
  N  N5  1  0.39188917  0.23719479  0.38905046  1
  N  N6  1  0.10133816  0.26271172  0.89965328  1
  N  N7  1  0.89193288  0.26280783  0.11095386  1
  N  N8  1  0.60957278  0.73725569  0.60956511  1
  N  N9  1  0.39667799  0.73721160  0.40180275  1
  N  N10  1  0.10953079  0.76275446  0.89044243  1
  N  N11  1  0.89660542  0.76279089  0.09816212  1
  H  H12  1  0.49103101  0.39494806  0.50068563  1
  H  H13  1  0.67398118  0.29126840  0.67998711  1
  H  H14  1  0.61812229  0.14254638  0.60526189  1
  H  H15  1  0.31624294  0.29163942  0.31332615  1
  H  H16  1  0.38060689  0.14225172  0.37664094  1
  H  H17  1  0.99104925  0.10504816  0.99929056  1
  H  H18  1  0.17405126  0.20872220  0.82005260  1
  H  H19  1  0.11821664  0.35744792  0.89482122  1
  H  H20  1  0.81625562  0.20836430  0.18665368  1
  H  H21  1  0.88066252  0.35775186  0.12338657  1
  H  H22  1  0.50943320  0.89491570  0.50008769  1
  H  H23  1  0.68954583  0.79173488  0.68130910  1
  H  H24  1  0.61549708  0.64249724  0.62651137  1
  H  H25  1  0.32076042  0.79111008  0.32576177  1
  H  H26  1  0.38467169  0.64227967  0.39119813  1
  H  H27  1  0.00939877  0.60508979  -0.00011230  1
  H  H28  1  0.18951855  0.70828324  0.81871385  1
  H  H29  1  0.11543838  0.85750910  0.87351428  1
  H  H30  1  0.82068200  0.70888314  0.17419188  1
  H  H31  1  0.88457620  0.85772204  0.10877514  1
  Ga  Ga32  1  0.49810658  0.99995273  0.99640813  1
  Ga  Ga33  1  0.99812111  0.50005744  0.50360819  1
  In  In34  1  0.00078175  -0.00000412  0.49774477  1
  In  In35  1  0.50077782  0.50001061  0.00225539  1
  Cl  Cl36  1  0.49880384  0.26527319  0.99655020  1
  Cl  Cl37  1  0.20344604  0.98747844  0.23591956  1
  Cl  Cl38  1  0.73798777  0.01223104  0.29592992  1
  Cl  Cl39  1  0.99875965  0.23473237  0.50349118  1
  Cl  Cl40  1  0.26235509  0.01294136  0.70133539  1
  Cl  Cl41  1  0.79854657  0.98716912  0.76079834  1
  Cl  Cl42  1  0.50074654  0.73478763  0.00474336  1
  Cl  Cl43  1  0.70343671  0.51252588  0.26408673  1
  Cl  Cl44  1  0.23798075  0.48778445  0.20405742  1
  Cl  Cl45  1  0.00079414  0.76521837  0.49522519  1
  Cl  Cl46  1  0.29853277  0.51283190  0.73920241  1
  Cl  Cl47  1  0.76233823  0.48704709  0.79866695  1
