# generated using pymatgen
data_GaAgH10C2(N2Cl3)2
_symmetry_space_group_name_H-M   'P 1'
_cell_length_a   8.29005539
_cell_length_b   9.42190880
_cell_length_c   8.40748956
_cell_angle_alpha   90.18453827
_cell_angle_beta   89.75278349
_cell_angle_gamma   90.93095777
_symmetry_Int_Tables_number   1
_chemical_formula_structural   GaAgH10C2(N2Cl3)2
_chemical_formula_sum   'Ga2 Ag2 H20 C4 N8 Cl12'
_cell_volume   656.59736532
_cell_formula_units_Z   2
loop_
 _symmetry_equiv_pos_site_id
 _symmetry_equiv_pos_as_xyz
  1  'x, y, z'
loop_
 _atom_site_type_symbol
 _atom_site_label
 _atom_site_symmetry_multiplicity
 _atom_site_fract_x
 _atom_site_fract_y
 _atom_site_fract_z
 _atom_site_occupancy
  C  C0  1  0.52118279  0.31118695  0.48889485  1
  C  C1  1  0.98571900  0.18200831  0.00168199  1
  C  C2  1  0.47887520  0.75292496  0.51474723  1
  C  C3  1  0.01590250  0.74187326  0.00784475  1
  N  N4  1  0.59146637  0.24852314  0.60870221  1
  N  N5  1  0.39001556  0.26360049  0.41852298  1
  N  N6  1  0.10845635  0.23996775  0.92595138  1
  N  N7  1  0.89502044  0.24692559  0.10654685  1
  N  N8  1  0.62618015  0.72511961  0.56012945  1
  N  N9  1  0.41223428  0.70245519  0.38440489  1
  N  N10  1  0.09926684  0.78391142  0.88273166  1
  N  N11  1  0.87414638  0.79014389  0.04828378  1
  H  H12  1  0.57926806  0.40716975  0.44170347  1
  H  H13  1  0.69335156  0.29237107  0.65680031  1
  H  H14  1  0.54689054  0.15671893  0.65781795  1
  H  H15  1  0.33485456  0.32382113  0.33299467  1
  H  H16  1  0.32929357  0.17674282  0.46400430  1
  H  H17  1  0.95273903  0.07283872  0.97253236  1
  H  H18  1  0.17617485  0.17902339  0.84972896  1
  H  H19  1  0.15362393  0.33720303  0.96164532  1
  H  H20  1  0.80268273  0.19188762  0.15990110  1
  H  H21  1  0.91203136  0.35072000  0.13926960  1
  H  H22  1  0.40730434  0.82457402  0.58853328  1
  H  H23  1  0.67748878  0.78755710  0.64789214  1
  H  H24  1  0.70173926  0.66920274  0.48755627  1
  H  H25  1  0.29314211  0.71877276  0.36286965  1
  H  H26  1  0.47475676  0.63913651  0.30748839  1
  H  H27  1  0.06965370  0.66009255  0.08224918  1
  H  H28  1  0.21387771  0.74888961  0.86747308  1
  H  H29  1  0.05955817  0.85905029  0.80555061  1
  H  H30  1  0.81105947  0.73577388  0.13482661  1
  H  H31  1  0.81293070  0.85576250  0.97294732  1
  Ga  Ga32  1  0.46151214  0.99433976  0.12575014  1
  Ga  Ga33  1  0.03654330  0.50347512  0.61922214  1
  Ag  Ag34  1  0.99336286  0.05549008  0.57343047  1
  Ag  Ag35  1  0.50690865  0.46332454  0.05939350  1
  Cl  Cl36  1  0.50188069  0.18804097  0.97830751  1
  Cl  Cl37  1  0.21713642  0.99089128  0.23114252  1
  Cl  Cl38  1  0.66216740  0.00364081  0.29993214  1
  Cl  Cl39  1  0.99099840  0.31541758  0.46280243  1
  Cl  Cl40  1  0.27490064  0.02921211  0.67187482  1
  Cl  Cl41  1  0.77307023  0.97871533  0.75011652  1
  Cl  Cl42  1  0.48462085  0.79823923  0.98069525  1
  Cl  Cl43  1  0.72999460  0.53473649  0.23845855  1
  Cl  Cl44  1  0.22635358  0.47577679  0.16542606  1
  Cl  Cl45  1  0.02047494  0.70386906  0.48311038  1
  Cl  Cl46  1  0.28154445  0.49793879  0.72181214  1
  Cl  Cl47  1  0.83766313  0.49100607  0.79640362  1
