# generated using pymatgen
data_GaH10RhC2(N2Cl3)2
_symmetry_space_group_name_H-M   'P 1'
_cell_length_a   7.73952352
_cell_length_b   10.29823952
_cell_length_c   7.72316381
_cell_angle_alpha   90.37695786
_cell_angle_beta   90.00113667
_cell_angle_gamma   89.99549094
_symmetry_Int_Tables_number   1
_chemical_formula_structural   GaH10RhC2(N2Cl3)2
_chemical_formula_sum   'Ga2 H20 Rh2 C4 N8 Cl12'
_cell_volume   615.54960735
_cell_formula_units_Z   2
loop_
 _symmetry_equiv_pos_site_id
 _symmetry_equiv_pos_as_xyz
  1  'x, y, z'
loop_
 _atom_site_type_symbol
 _atom_site_label
 _atom_site_symmetry_multiplicity
 _atom_site_fract_x
 _atom_site_fract_y
 _atom_site_fract_z
 _atom_site_occupancy
  C  C0  1  0.49634509  0.29446222  0.49711465  1
  C  C1  1  0.99637678  0.20553744  0.00289190  1
  C  C2  1  0.50439323  0.79456090  0.50394246  1
  C  C3  1  0.00435523  0.70544293  0.99604293  1
  N  N4  1  0.60268051  0.23700088  0.60346126  1
  N  N5  1  0.39260192  0.23648905  0.38790083  1
  N  N6  1  0.10272831  0.26300065  0.89657930  1
  N  N7  1  0.89263826  0.26351123  0.11211976  1
  N  N8  1  0.61072864  0.73662259  0.60975211  1
  N  N9  1  0.39356845  0.73712148  0.40137640  1
  N  N10  1  0.11069509  0.76339183  0.89024884  1
  N  N11  1  0.89352276  0.76287145  0.09860061  1
  H  H12  1  0.49385398  0.39993347  0.49988708  1
  H  H13  1  0.67326619  0.29287858  0.68712766  1
  H  H14  1  0.62427020  0.13936501  0.60493809  1
  H  H15  1  0.31970564  0.29256204  0.30741970  1
  H  H16  1  0.37446091  0.13847983  0.38123234  1
  H  H17  1  0.99384283  0.10006827  1.00009832  1
  H  H18  1  0.17330691  0.20711842  0.81289784  1
  H  H19  1  0.12434922  0.36063221  0.89513012  1
  H  H20  1  0.81972487  0.20744372  0.19257333  1
  H  H21  1  0.87452708  0.36152186  0.11880809  1
  H  H22  1  0.50884367  0.89996784  0.50091590  1
  H  H23  1  0.69526257  0.79249720  0.67919942  1
  H  H24  1  0.61185021  0.63909414  0.63182990  1
  H  H25  1  0.31347507  0.79310738  0.32796010  1
  H  H26  1  0.38618685  0.63906332  0.38387021  1
  H  H27  1  0.00880411  0.60003650  0.99906379  1
  H  H28  1  0.19524201  0.70752003  0.82080293  1
  H  H29  1  0.11181095  0.86092271  0.86818149  1
  H  H30  1  0.81343158  0.70688595  0.17200260  1
  H  H31  1  0.88613258  0.86093116  0.11611477  1
  Ga  Ga32  1  0.49586792  1.00000018  0.99659109  1
  Ga  Ga33  1  0.99589774  0.50000463  0.50343860  1
  Rh  Rh34  1  0.00035975  0.99997921  0.49782908  1
  Rh  Rh35  1  0.50036567  0.50002304  0.00217140  1
  Cl  Cl36  1  0.49991591  0.26746428  0.99818827  1
  Cl  Cl37  1  0.18922182  0.98918693  0.25170971  1
  Cl  Cl38  1  0.75506806  0.00880349  0.30883609  1
  Cl  Cl39  1  0.99987466  0.23253828  0.50185009  1
  Cl  Cl40  1  0.24614173  0.01036660  0.68679479  1
  Cl  Cl41  1  0.81185732  0.99143966  0.74348024  1
  Cl  Cl42  1  0.50008236  0.73257598  0.00452557  1
  Cl  Cl43  1  0.68922929  0.51081461  0.24829134  1
  Cl  Cl44  1  0.25507066  0.49120737  0.19115390  1
  Cl  Cl45  1  0.00009893  0.76742614  0.49543971  1
  Cl  Cl46  1  0.31185195  0.50856272  0.75651591  1
  Cl  Cl47  1  0.74613384  0.48962756  0.81320422  1
