# generated using pymatgen
data_ZrGaH10C2(N2Cl3)2
_symmetry_space_group_name_H-M   'P 1'
_cell_length_a   8.04146571
_cell_length_b   10.90228490
_cell_length_c   7.77858858
_cell_angle_alpha   92.89949223
_cell_angle_beta   87.88322192
_cell_angle_gamma   90.57221652
_symmetry_Int_Tables_number   1
_chemical_formula_structural   ZrGaH10C2(N2Cl3)2
_chemical_formula_sum   'Zr2 Ga2 H20 C4 N8 Cl12'
_cell_volume   680.59128172
_cell_formula_units_Z   2
loop_
 _symmetry_equiv_pos_site_id
 _symmetry_equiv_pos_as_xyz
  1  'x, y, z'
loop_
 _atom_site_type_symbol
 _atom_site_label
 _atom_site_symmetry_multiplicity
 _atom_site_fract_x
 _atom_site_fract_y
 _atom_site_fract_z
 _atom_site_occupancy
  C  C0  1  0.48854167  0.31453864  0.50582547  1
  C  C1  1  0.98137964  0.28297140  0.97444862  1
  C  C2  1  0.54022368  0.73395087  0.54992593  1
  C  C3  1  0.00690398  0.71010159  0.99424319  1
  N  N4  1  0.58768154  0.26395046  0.61173327  1
  N  N5  1  0.38441923  0.25479781  0.40569497  1
  N  N6  1  0.12446106  0.25579740  0.89567139  1
  N  N7  1  0.90469279  0.21482438  0.08687408  1
  N  N8  1  0.59522279  0.78838158  0.69019380  1
  N  N9  1  0.41173951  0.77167491  0.46467020  1
  N  N10  1  0.11370694  0.76691855  0.89374076  1
  N  N11  1  0.88593714  0.76212388  0.08818479  1
  H  H12  1  0.49342806  0.41435530  0.50028247  1
  H  H13  1  0.65592499  0.32081367  0.69141370  1
  H  H14  1  0.59244749  0.17160973  0.62409118  1
  H  H15  1  0.31515583  0.30319243  0.32499673  1
  H  H16  1  0.37027720  0.16168319  0.40331459  1
  H  H17  1  0.95737450  0.13688359  0.12750350  1
  H  H18  1  0.19197245  0.18137651  0.92360105  1
  H  H19  1  0.18487004  0.32268275  0.82895540  1
  H  H20  1  0.78986196  0.23992981  0.13510469  1
  H  H21  1  0.91982358  0.36721776  0.94217705  1
  H  H22  1  0.35555919  0.85342907  0.49796182  1
  H  H23  1  0.68851191  0.73802719  0.73755101  1
  H  H24  1  0.59877260  0.64988466  0.49382040  1
  H  H25  1  0.39034763  0.73085938  0.34673395  1
  H  H26  1  0.47168845  0.54420895  0.28876625  1
  H  H27  1  0.01969666  0.61086565  0.00053725  1
  H  H28  1  0.20401356  0.71493527  0.83012826  1
  H  H29  1  0.10879011  0.85897219  0.87707221  1
  H  H30  1  0.81131038  0.70678609  0.16078571  1
  H  H31  1  0.86960862  0.85471998  0.10179521  1
  Ga  Ga32  1  0.52298226  0.93605529  0.87084943  1
  Ga  Ga33  1  0.01216064  0.51032321  0.51551969  1
  Zr  Zr34  1  0.98500550  0.00766923  0.49105507  1
  Zr  Zr35  1  0.49457487  0.49972991  0.05927450  1
  Cl  Cl36  1  0.51258804  0.27286576  0.01956311  1
  Cl  Cl37  1  0.15532604  0.00361311  0.21500364  1
  Cl  Cl38  1  0.72031975  0.00231765  0.34519635  1
  Cl  Cl39  1  0.98001516  0.23294763  0.49824413  1
  Cl  Cl40  1  0.26239130  0.02482754  0.64129632  1
  Cl  Cl41  1  0.86208294  0.00966080  0.78797675  1
  Cl  Cl42  1  0.48058647  0.72845408  0.06706601  1
  Cl  Cl43  1  0.76907848  0.49580721  0.22212566  1
  Cl  Cl44  1  0.19990794  0.46614810  0.18948439  1
  Cl  Cl45  1  0.99853197  0.78336306  0.48789015  1
  Cl  Cl46  1  0.30428098  0.51127334  0.78588034  1
  Cl  Cl47  1  0.72584183  0.51254240  0.80588033  1
