# generated using pymatgen
data_ZnH12PtC2(I3N)2
_symmetry_space_group_name_H-M   'P 1'
_cell_length_a   7.76474615
_cell_length_b   11.92282522
_cell_length_c   8.73448910
_cell_angle_alpha   93.40528500
_cell_angle_beta   89.99485657
_cell_angle_gamma   89.99890823
_symmetry_Int_Tables_number   1
_chemical_formula_structural   ZnH12PtC2(I3N)2
_chemical_formula_sum   'Zn2 H24 Pt2 C4 I12 N4'
_cell_volume   807.19127033
_cell_formula_units_Z   2
loop_
 _symmetry_equiv_pos_site_id
 _symmetry_equiv_pos_as_xyz
  1  'x, y, z'
loop_
 _atom_site_type_symbol
 _atom_site_label
 _atom_site_symmetry_multiplicity
 _atom_site_fract_x
 _atom_site_fract_y
 _atom_site_fract_z
 _atom_site_occupancy
  C  C0  1  0.42041808  0.25018108  0.38423781  1
  C  C1  1  0.92916850  0.24288833  0.11337507  1
  C  C2  1  0.57065473  0.74281544  0.61352615  1
  C  C3  1  0.07973212  0.75021430  0.88434696  1
  N  N4  1  0.52228818  0.26433219  0.52773312  1
  N  N5  1  0.03176120  0.24827736  0.97076976  1
  N  N6  1  0.46816265  0.74831869  0.47089922  1
  N  N7  1  0.97781227  0.76429284  0.02784046  1
  H  H8  1  0.50898167  0.24814009  0.28647263  1
  H  H9  1  0.34878897  0.17125801  0.38536127  1
  H  H10  1  0.33284500  0.32178373  0.37861631  1
  H  H11  1  0.61228172  0.20046357  0.53460888  1
  H  H12  1  0.59087114  0.33918860  0.52942861  1
  H  H13  1  0.44833827  0.26534921  0.62719627  1
  H  H14  1  0.01708999  0.24814715  0.21152671  1
  H  H15  1  0.85833419  0.16345487  0.10962858  1
  H  H16  1  0.83962052  0.31384978  0.12083346  1
  H  H17  1  0.12194159  0.18384515  0.96147254  1
  H  H18  1  0.09991073  0.32383100  0.97377336  1
  H  H19  1  0.95709466  0.24276552  0.87194960  1
  H  H20  1  0.48267942  0.74810624  0.71165377  1
  H  H21  1  0.64135600  0.66332809  0.60975658  1
  H  H22  1  0.66031644  0.81371001  0.62104918  1
  H  H23  1  0.40013896  0.82392392  0.47392233  1
  H  H24  1  0.37787891  0.68395344  0.46154508  1
  H  H25  1  0.54288636  0.74277495  0.37210146  1
  H  H26  1  0.99119457  0.74817693  0.78657792  1
  H  H27  1  0.16724773  0.82184827  0.87877346  1
  H  H28  1  0.15142049  0.67130990  0.88543186  1
  H  H29  1  0.90913147  0.83911253  0.02955838  1
  H  H30  1  0.88790506  0.70037168  0.03468981  1
  H  H31  1  0.05173635  0.76533128  0.12730830  1
  Zn  Zn32  1  0.55881393  0.96745989  0.06312528  1
  Zn  Zn33  1  0.94117496  0.46752150  0.56312538  1
  Pt  Pt34  1  0.99814653  0.99982762  0.48360255  1
  Pt  Pt35  1  0.50185174  0.49984132  0.98358556  1
  I  I36  1  0.48738617  0.28145921  0.93033204  1
  I  I37  1  0.24549088  0.00929681  0.12647739  1
  I  I38  1  0.69106456  0.00207028  0.35186905  1
  I  I39  1  0.97857710  0.22020820  0.56274733  1
  I  I40  1  0.28256704  0.99812968  0.64562622  1
  I  I41  1  0.76821447  0.99389136  0.84827128  1
  I  I42  1  0.52148479  0.72019627  0.06291959  1
  I  I43  1  0.73181207  0.49393832  0.34827394  1
  I  I44  1  0.21740033  0.49808774  0.14559791  1
  I  I45  1  0.01257805  0.78143429  0.43045943  1
  I  I46  1  0.25450834  0.50926082  0.62644371  1
  I  I47  1  0.80896484  0.50211083  0.85187505  1
