# generated using pymatgen
data_YGaH10C2(N2Cl3)2
_symmetry_space_group_name_H-M   'P 1'
_cell_length_a   7.90711990
_cell_length_b   10.89354704
_cell_length_c   7.89139337
_cell_angle_alpha   90.14655209
_cell_angle_beta   89.99897334
_cell_angle_gamma   89.99761476
_symmetry_Int_Tables_number   1
_chemical_formula_structural   YGaH10C2(N2Cl3)2
_chemical_formula_sum   'Y2 Ga2 H20 C4 N8 Cl12'
_cell_volume   679.73543236
_cell_formula_units_Z   2
loop_
 _symmetry_equiv_pos_site_id
 _symmetry_equiv_pos_as_xyz
  1  'x, y, z'
loop_
 _atom_site_type_symbol
 _atom_site_label
 _atom_site_symmetry_multiplicity
 _atom_site_fract_x
 _atom_site_fract_y
 _atom_site_fract_z
 _atom_site_occupancy
  C  C0  1  0.49397104  0.29282782  0.49663519  1
  C  C1  1  0.99400249  0.20715805  0.00338614  1
  C  C2  1  0.50586656  0.79281256  0.50378753  1
  C  C3  1  0.00580064  0.70718735  0.99620192  1
  N  N4  1  0.60005094  0.23814298  0.59915149  1
  N  N5  1  0.39190672  0.23818644  0.38971642  1
  N  N6  1  0.10013433  0.26185901  0.90089050  1
  N  N7  1  0.89195081  0.26181754  0.11027928  1
  N  N8  1  0.60924667  0.73824848  0.60911429  1
  N  N9  1  0.39823468  0.73804463  0.40259715  1
  N  N10  1  0.10919504  0.76176454  0.89089904  1
  N  N11  1  0.89813562  0.76196335  0.09737529  1
  H  H12  1  0.48993227  0.39273297  0.50093769  1
  H  H13  1  0.67384917  0.29046272  0.67714805  1
  H  H14  1  0.61455758  0.14527429  0.60450974  1
  H  H15  1  0.31498943  0.29100907  0.31579364  1
  H  H16  1  0.38401981  0.14521008  0.37581101  1
  H  H17  1  0.98995662  0.10726667  0.99904110  1
  H  H18  1  0.17393326  0.20952530  0.82290043  1
  H  H19  1  0.11466257  0.35471262  0.89557673  1
  H  H20  1  0.81499409  0.20898454  0.18418192  1
  H  H21  1  0.88406748  0.35477864  0.12421390  1
  H  H22  1  0.51006277  0.89269618  0.49967074  1
  H  H23  1  0.68756493  0.79121939  0.68183647  1
  H  H24  1  0.61607974  0.64535437  0.62361593  1
  H  H25  1  0.32393032  0.79020187  0.32529648  1
  H  H26  1  0.38490497  0.64511377  0.39557982  1
  H  H27  1  0.01001198  0.60731221  0.00030896  1
  H  H28  1  0.18753411  0.70879476  0.81819382  1
  H  H29  1  0.11601969  0.85465283  0.87640877  1
  H  H30  1  0.82382093  0.70979168  0.17465674  1
  H  H31  1  0.88478612  0.85488636  0.10438893  1
  Ga  Ga32  1  0.49909063  0.99995936  0.99696342  1
  Ga  Ga33  1  0.99909641  0.50005314  0.50304456  1
  Y  Y34  1  0.00092928  0.00001918  0.49777859  1
  Y  Y35  1  0.50092277  0.49999172  0.00221796  1
  Cl  Cl36  1  0.49799836  0.26203932  0.99498388  1
  Cl  Cl37  1  0.20285097  0.98569117  0.22945326  1
  Cl  Cl38  1  0.73026060  0.01646263  0.29821762  1
  Cl  Cl39  1  0.99795500  0.23796919  0.50506052  1
  Cl  Cl40  1  0.26830049  0.01488655  0.70081492  1
  Cl  Cl41  1  0.80053234  0.98285815  0.76801690  1
  Cl  Cl42  1  0.50098517  0.73799028  0.00581095  1
  Cl  Cl43  1  0.70282689  0.51432039  0.27055174  1
  Cl  Cl44  1  0.23024483  0.48354818  0.20176544  1
  Cl  Cl45  1  0.00104468  0.76202119  0.49415372  1
  Cl  Cl46  1  0.30052058  0.51714698  0.73198541  1
  Cl  Cl47  1  0.76828697  0.48511250  0.79918078  1
