# generated using pymatgen
data_SrGaH10C2(N2Cl3)2
_symmetry_space_group_name_H-M   'P 1'
_cell_length_a   8.14920294
_cell_length_b   10.43398504
_cell_length_c   8.20001811
_cell_angle_alpha   91.43333157
_cell_angle_beta   90.75050447
_cell_angle_gamma   91.42846030
_symmetry_Int_Tables_number   1
_chemical_formula_structural   SrGaH10C2(N2Cl3)2
_chemical_formula_sum   'Sr2 Ga2 H20 C4 N8 Cl12'
_cell_volume   696.73610605
_cell_formula_units_Z   2
loop_
 _symmetry_equiv_pos_site_id
 _symmetry_equiv_pos_as_xyz
  1  'x, y, z'
loop_
 _atom_site_type_symbol
 _atom_site_label
 _atom_site_symmetry_multiplicity
 _atom_site_fract_x
 _atom_site_fract_y
 _atom_site_fract_z
 _atom_site_occupancy
  C  C0  1  0.50915676  0.29676339  0.50768972  1
  C  C1  1  0.02158047  0.22758477  0.00259357  1
  C  C2  1  0.49270222  0.77501127  0.54522188  1
  C  C3  1  0.00226358  0.69884855  0.98369538  1
  N  N4  1  0.58661006  0.23236024  0.61967172  1
  N  N5  1  0.38442220  0.25265037  0.41864955  1
  N  N6  1  0.09153168  0.25876103  0.86489769  1
  N  N7  1  0.90031165  0.28847918  0.06967165  1
  N  N8  1  0.64002214  0.74467327  0.59709517  1
  N  N9  1  0.41514999  0.72174081  0.41911844  1
  N  N10  1  0.10123126  0.75058055  0.87697924  1
  N  N11  1  0.89718691  0.76082224  0.07362369  1
  H  H12  1  0.55434075  0.39401935  0.48494343  1
  H  H13  1  0.67810519  0.28011846  0.68512668  1
  H  H14  1  0.54579172  0.14450872  0.65681661  1
  H  H15  1  0.32555207  0.31363272  0.34157014  1
  H  H16  1  0.33144125  0.16461946  0.43728272  1
  H  H17  1  0.06970590  0.14549729  0.06613253  1
  H  H18  1  0.17892679  0.20000083  0.81666840  1
  H  H19  1  0.05945776  0.33789937  0.80245697  1
  H  H20  1  0.86940259  0.26709332  0.18684906  1
  H  H21  1  0.85115805  0.36608216  0.01420308  1
  H  H22  1  0.43087915  0.85174638  0.61203829  1
  H  H23  1  0.69058948  0.79440994  0.69544607  1
  H  H24  1  0.70604756  0.67497524  0.54062406  1
  H  H25  1  0.29372947  0.74237829  0.39964538  1
  H  H26  1  0.46338181  0.64581710  0.35602573  1
  H  H27  1  0.00893341  0.59560596  0.99861280  1
  H  H28  1  0.17399866  0.69063526  0.80952524  1
  H  H29  1  0.11498234  0.84724195  0.86327347  1
  H  H30  1  0.83002537  0.71069421  0.15677172  1
  H  H31  1  0.87601066  0.85595328  0.05798593  1
  Ga  Ga32  1  0.47988831  0.99383065  0.11087949  1
  Ga  Ga33  1  0.00698125  0.49825935  0.48402549  1
  Sr  Sr34  1  0.96713340  0.99896166  0.55163802  1
  Sr  Sr35  1  0.48792845  0.49867512  0.98778025  1
  Cl  Cl36  1  0.49968178  0.18950533  0.00925675  1
  Cl  Cl37  1  0.23272001  0.98485220  0.22116178  1
  Cl  Cl38  1  0.67831336  0.98982529  0.29948340  1
  Cl  Cl39  1  0.97787023  0.23670745  0.43167479  1
  Cl  Cl40  1  0.27605003  0.02264473  0.70508442  1
  Cl  Cl41  1  0.79615350  0.98952675  0.83495510  1
  Cl  Cl42  1  0.48747317  0.80439107  0.97869500  1
  Cl  Cl43  1  0.69570918  0.53558031  0.26452447  1
  Cl  Cl44  1  0.23054522  0.48086486  0.20603227  1
  Cl  Cl45  1  0.02783706  0.75670088  0.44682249  1
  Cl  Cl46  1  0.28881294  0.51433900  0.71290098  1
  Cl  Cl47  1  0.77229255  0.47419332  0.79428406  1
