# generated using pymatgen
data_GaAsH10C2(N2Cl3)2
_symmetry_space_group_name_H-M   'P 1'
_cell_length_a   7.80082265
_cell_length_b   10.60842487
_cell_length_c   7.78426100
_cell_angle_alpha   90.36852720
_cell_angle_beta   89.99801192
_cell_angle_gamma   89.99640642
_symmetry_Int_Tables_number   1
_chemical_formula_structural   GaAsH10C2(N2Cl3)2
_chemical_formula_sum   'Ga2 As2 H20 C4 N8 Cl12'
_cell_volume   644.16884123
_cell_formula_units_Z   2
loop_
 _symmetry_equiv_pos_site_id
 _symmetry_equiv_pos_as_xyz
  1  'x, y, z'
loop_
 _atom_site_type_symbol
 _atom_site_label
 _atom_site_symmetry_multiplicity
 _atom_site_fract_x
 _atom_site_fract_y
 _atom_site_fract_z
 _atom_site_occupancy
  C  C0  1  0.49508777  0.29306229  0.49667871  1
  C  C1  1  0.99516286  0.20692196  0.00329099  1
  C  C2  1  0.50538720  0.79307961  0.50344737  1
  C  C3  1  0.00533707  0.70691794  0.99654251  1
  N  N4  1  0.60192788  0.23696972  0.60089778  1
  N  N5  1  0.39183707  0.23712194  0.38823622  1
  N  N6  1  0.10199058  0.26302398  0.89915547  1
  N  N7  1  0.89184562  0.26288079  0.11179710  1
  N  N8  1  0.61022668  0.73712102  0.60955804  1
  N  N9  1  0.39595833  0.73703901  0.40111303  1
  N  N10  1  0.11018376  0.76289622  0.89044586  1
  N  N11  1  0.89587440  0.76296491  0.09887410  1
  H  H12  1  0.49152407  0.39555504  0.50099043  1
  H  H13  1  0.67386975  0.29117708  0.68215252  1
  H  H14  1  0.62086423  0.14189390  0.60421004  1
  H  H15  1  0.31677945  0.29215326  0.31146846  1
  H  H16  1  0.37867308  0.14174417  0.37656265  1
  H  H17  1  0.99153086  0.10444087  0.99898998  1
  H  H18  1  0.17394339  0.20880916  0.81786906  1
  H  H19  1  0.12096610  0.35809776  0.89586000  1
  H  H20  1  0.81680507  0.20784598  0.18851069  1
  H  H21  1  0.87874269  0.35824738  0.12346045  1
  H  H22  1  0.51002691  0.89552444  0.49968169  1
  H  H23  1  0.69158151  0.79197189  0.68070031  1
  H  H24  1  0.61446868  0.64209732  0.62843286  1
  H  H25  1  0.31877127  0.79137168  0.32585882  1
  H  H26  1  0.38467469  0.64162998  0.38839368  1
  H  H27  1  0.00998826  0.60448288  0.00030753  1
  H  H28  1  0.19156664  0.70804294  0.81932056  1
  H  H29  1  0.11441651  0.85791466  0.87158458  1
  H  H30  1  0.81868718  0.70862189  0.17409524  1
  H  H31  1  0.88458114  0.85836665  0.11157952  1
  Ga  Ga32  1  0.50312478  0.99993727  0.00143490  1
  Ga  Ga33  1  0.00316192  0.50001106  0.49854596  1
  As  As34  1  0.00235133  0.99997205  0.49837822  1
  As  As35  1  0.50236103  0.50001244  0.00161706  1
  Cl  Cl36  1  0.49885398  0.26635070  0.99712728  1
  Cl  Cl37  1  0.20231213  0.98836621  0.24108888  1
  Cl  Cl38  1  0.73892182  0.01100115  0.29152657  1
  Cl  Cl39  1  0.99883148  0.23370526  0.50292368  1
  Cl  Cl40  1  0.25378352  0.01129977  0.69679535  1
  Cl  Cl41  1  0.79805878  0.98912677  0.75594423  1
  Cl  Cl42  1  0.50097621  0.73375325  0.00378937  1
  Cl  Cl43  1  0.70230041  0.51164695  0.25890837  1
  Cl  Cl44  1  0.23888514  0.48900719  0.20848978  1
  Cl  Cl45  1  0.00101775  0.76630762  0.49617989  1
  Cl  Cl46  1  0.29804639  0.51087386  0.74406243  1
  Cl  Cl47  1  0.75375197  0.48870310  0.80322652  1
