# generated using pymatgen
data_GaGeH10C2(N2Cl3)2
_symmetry_space_group_name_H-M   'P 1'
_cell_length_a   7.91455276
_cell_length_b   10.67133149
_cell_length_c   8.03527191
_cell_angle_alpha   91.94201067
_cell_angle_beta   90.80684094
_cell_angle_gamma   91.08791557
_symmetry_Int_Tables_number   1
_chemical_formula_structural   GaGeH10C2(N2Cl3)2
_chemical_formula_sum   'Ga2 Ge2 H20 C4 N8 Cl12'
_cell_volume   678.06386418
_cell_formula_units_Z   2
loop_
 _symmetry_equiv_pos_site_id
 _symmetry_equiv_pos_as_xyz
  1  'x, y, z'
loop_
 _atom_site_type_symbol
 _atom_site_label
 _atom_site_symmetry_multiplicity
 _atom_site_fract_x
 _atom_site_fract_y
 _atom_site_fract_z
 _atom_site_occupancy
  C  C0  1  0.50767501  0.30140829  0.49680665  1
  C  C1  1  0.96110949  0.28216460  0.00560226  1
  C  C2  1  0.48414371  0.77367852  0.52623464  1
  C  C3  1  0.99953087  0.70488788  0.00206303  1
  N  N4  1  0.59706336  0.24542481  0.60990896  1
  N  N5  1  0.38387026  0.24917918  0.40710735  1
  N  N6  1  0.06698048  0.27452298  0.88201731  1
  N  N7  1  0.94241198  0.19748399  0.11863921  1
  N  N8  1  0.63595595  0.74753790  0.57969147  1
  N  N9  1  0.40637472  0.71698381  0.39836077  1
  N  N10  1  0.10198968  0.75790424  0.89778050  1
  N  N11  1  0.89341165  0.76350621  0.09999947  1
  H  H12  1  0.54060940  0.39916018  0.47454309  1
  H  H13  1  0.69526810  0.29578836  0.66562342  1
  H  H14  1  0.58112590  0.15324027  0.63635422  1
  H  H15  1  0.31755009  0.30353104  0.32777585  1
  H  H16  1  0.33770868  0.16145256  0.42921235  1
  H  H17  1  0.02135412  0.12282669  0.12525903  1
  H  H18  1  0.13962450  0.19779537  0.85704041  1
  H  H19  1  0.06263579  0.34055596  0.79349882  1
  H  H20  1  0.87194921  0.21624690  0.22148879  1
  H  H21  1  0.88198490  0.36489253  0.01344588  1
  H  H22  1  0.41737871  0.84885388  0.59198265  1
  H  H23  1  0.69091892  0.80050230  0.67464737  1
  H  H24  1  0.70411741  0.67627144  0.52866270  1
  H  H25  1  0.28121651  0.73554498  0.37956543  1
  H  H26  1  0.45981127  0.64452245  0.33245857  1
  H  H27  1  0.00349165  0.60320975  0.00914843  1
  H  H28  1  0.17713718  0.70188693  0.82585317  1
  H  H29  1  0.10272224  0.85167929  0.87700634  1
  H  H30  1  0.81717196  0.70991590  0.17266587  1
  H  H31  1  0.87722135  0.85781774  0.09967870  1
  Ga  Ga32  1  0.47617003  0.99321895  0.10314196  1
  Ga  Ga33  1  0.99759356  0.49634800  0.48066896  1
  Ge  Ge34  1  0.99452902  0.99803390  0.53788987  1
  Ge  Ge35  1  0.49360253  0.45455829  0.97389402  1
  Cl  Cl36  1  0.50443613  0.17927365  0.98838660  1
  Cl  Cl37  1  0.21500380  0.98348246  0.20509779  1
  Cl  Cl38  1  0.66380401  0.99910881  0.31034978  1
  Cl  Cl39  1  0.98866606  0.25906501  0.49606902  1
  Cl  Cl40  1  0.25450920  0.02958123  0.69348150  1
  Cl  Cl41  1  0.83040781  0.99389244  0.78361247  1
  Cl  Cl42  1  0.50526967  0.81751526  0.95861515  1
  Cl  Cl43  1  0.70189460  0.52543946  0.24022629  1
  Cl  Cl44  1  0.26699833  0.47859258  0.16418118  1
  Cl  Cl45  1  0.03043195  0.77160452  0.50677110  1
  Cl  Cl46  1  0.32290219  0.52322985  0.74576393  1
  Cl  Cl47  1  0.79228540  0.49674164  0.75183245  1
