# generated using pymatgen
data_GeH10PbC2(N2Cl3)2
_symmetry_space_group_name_H-M   'P 1'
_cell_length_a   7.86682201
_cell_length_b   10.79658835
_cell_length_c   7.85018246
_cell_angle_alpha   89.70679997
_cell_angle_beta   90.00116723
_cell_angle_gamma   89.99960576
_symmetry_Int_Tables_number   1
_chemical_formula_structural   GeH10PbC2(N2Cl3)2
_chemical_formula_sum   'Ge2 H20 Pb2 C4 N8 Cl12'
_cell_volume   666.74525232
_cell_formula_units_Z   2
loop_
 _symmetry_equiv_pos_site_id
 _symmetry_equiv_pos_as_xyz
  1  'x, y, z'
loop_
 _atom_site_type_symbol
 _atom_site_label
 _atom_site_symmetry_multiplicity
 _atom_site_fract_x
 _atom_site_fract_y
 _atom_site_fract_z
 _atom_site_occupancy
  C  C0  1  0.49469772  0.29235455  0.49683644  1
  C  C1  1  0.99473123  0.20762807  0.00316811  1
  C  C2  1  0.50462247  0.79235836  0.50337895  1
  C  C3  1  0.00457414  0.70763691  0.99661540  1
  N  N4  1  0.60245315  0.23728076  0.59914506  1
  N  N5  1  0.39139014  0.23737011  0.39066268  1
  N  N6  1  0.10251859  0.26272867  0.90087674  1
  N  N7  1  0.89140923  0.26263877  0.10936681  1
  N  N8  1  0.60800069  0.73738103  0.61015108  1
  N  N9  1  0.39791931  0.73715601  0.40060953  1
  N  N10  1  0.10796104  0.76263370  0.88984694  1
  N  N11  1  0.89785166  0.76283747  0.09936800  1
  H  H12  1  0.49027125  0.39316223  0.50060476  1
  H  H13  1  0.67929548  0.29065192  0.67367082  1
  H  H14  1  0.61274984  0.14347281  0.61170822  1
  H  H15  1  0.31068023  0.29111725  0.31998607  1
  H  H16  1  0.38830476  0.14397822  0.37141915  1
  H  H17  1  0.99028020  0.10684558  0.99937481  1
  H  H18  1  0.17934038  0.20935278  0.82637306  1
  H  H19  1  0.11282161  0.35652205  0.88836001  1
  H  H20  1  0.81069845  0.20888495  0.17998839  1
  H  H21  1  0.88835716  0.35601076  0.12860309  1
  H  H22  1  0.50789601  0.89318195  0.49939001  1
  H  H23  1  0.68246719  0.79135807  0.68639076  1
  H  H24  1  0.62137301  0.64360338  0.62046897  1
  H  H25  1  0.32660358  0.79029762  0.31987974  1
  H  H26  1  0.37902203  0.64373482  0.39810228  1
  H  H27  1  0.00786795  0.60682146  0.00060096  1
  H  H28  1  0.18243723  0.70865968  0.81362010  1
  H  H29  1  0.12131198  0.85640602  0.87953902  1
  H  H30  1  0.82655228  0.70968493  0.18009473  1
  H  H31  1  0.87894219  0.85625269  0.10187985  1
  Ge  Ge32  1  0.49539008  0.99999083  0.99970736  1
  Ge  Ge33  1  0.99541613  0.49998134  0.50029684  1
  Pb  Pb34  1  0.99919657  0.00006368  0.49845021  1
  Pb  Pb35  1  0.49921135  0.49992167  0.00155052  1
  Cl  Cl36  1  0.49848324  0.23909373  0.99632800  1
  Cl  Cl37  1  0.23630678  0.98629805  0.20746230  1
  Cl  Cl38  1  0.71262767  0.01347039  0.26733063  1
  Cl  Cl39  1  0.99845002  0.26095793  0.50370657  1
  Cl  Cl40  1  0.28495427  0.01418677  0.72986836  1
  Cl  Cl41  1  0.77391282  0.98616886  0.77973978  1
  Cl  Cl42  1  0.50145471  0.76063226  0.00367546  1
  Cl  Cl43  1  0.73628568  0.51370308  0.29253206  1
  Cl  Cl44  1  0.21260462  0.48652755  0.23268345  1
  Cl  Cl45  1  0.00150487  0.73941714  0.49628616  1
  Cl  Cl46  1  0.27388874  0.51383202  0.72025759  1
  Cl  Cl47  1  0.78492959  0.48581411  0.77014890  1
