# generated using pymatgen
data_HgGeH10C2(N2Cl3)2
_symmetry_space_group_name_H-M   'P 1'
_cell_length_a   7.97477985
_cell_length_b   10.21248785
_cell_length_c   7.92227135
_cell_angle_alpha   89.44612440
_cell_angle_beta   90.00323257
_cell_angle_gamma   90.00237755
_symmetry_Int_Tables_number   1
_chemical_formula_structural   HgGeH10C2(N2Cl3)2
_chemical_formula_sum   'Hg2 Ge2 H20 C4 N8 Cl12'
_cell_volume   645.17818671
_cell_formula_units_Z   2
loop_
 _symmetry_equiv_pos_site_id
 _symmetry_equiv_pos_as_xyz
  1  'x, y, z'
loop_
 _atom_site_type_symbol
 _atom_site_label
 _atom_site_symmetry_multiplicity
 _atom_site_fract_x
 _atom_site_fract_y
 _atom_site_fract_z
 _atom_site_occupancy
  C  C0  1  0.49741572  0.29294179  0.49666325  1
  C  C1  1  0.99741719  0.20705751  0.00336182  1
  C  C2  1  0.50407421  0.79351937  0.50197076  1
  C  C3  1  0.00405088  0.70648610  0.99800820  1
  N  N4  1  0.60544588  0.23567754  0.59765494  1
  N  N5  1  0.39459326  0.23472880  0.39300106  1
  N  N6  1  0.10548291  0.26433881  0.90236896  1
  N  N7  1  0.89462559  0.26528364  0.10700741  1
  N  N8  1  0.60535948  0.73583315  0.60937908  1
  N  N9  1  0.40013118  0.73553457  0.39901745  1
  N  N10  1  0.10529238  0.76416460  0.89063032  1
  N  N11  1  0.90007175  0.76444962  0.10096467  1
  H  H12  1  0.49209590  0.39931453  0.49942172  1
  H  H13  1  0.67852637  0.29277610  0.67330447  1
  H  H14  1  0.61753202  0.13669168  0.61091936  1
  H  H15  1  0.31520664  0.29211670  0.32241138  1
  H  H16  1  0.38794372  0.13588362  0.37745600  1
  H  H17  1  0.99207884  0.10069404  0.00057312  1
  H  H18  1  0.17852888  0.20722742  0.82672717  1
  H  H19  1  0.11758652  0.36330144  0.88913612  1
  H  H20  1  0.81522773  0.20788983  0.17758573  1
  H  H21  1  0.88799749  0.36411538  0.12256865  1
  H  H22  1  0.50756615  0.89991770  0.49721992  1
  H  H23  1  0.67820075  0.79329556  0.68535870  1
  H  H24  1  0.61395653  0.63686110  0.62485884  1
  H  H25  1  0.32792439  0.79246502  0.32096352  1
  H  H26  1  0.38177113  0.63678064  0.39451731  1
  H  H27  1  0.00755293  0.60007714  0.00279441  1
  H  H28  1  0.17816205  0.70672283  0.81465356  1
  H  H29  1  0.11387460  0.86315529  0.87512442  1
  H  H30  1  0.82789512  0.70751197  0.17902164  1
  H  H31  1  0.88170560  0.86320235  0.10544680  1
  Ge  Ge32  1  0.47781957  0.00001811  0.99418997  1
  Ge  Ge33  1  0.97785590  0.49997902  0.50583356  1
  Hg  Hg34  1  0.95688083  0.99983943  0.50261662  1
  Hg  Hg35  1  0.45690820  0.50016035  -0.00256321  1
  Cl  Cl36  1  0.51150368  0.26031050  0.99787057  1
  Cl  Cl37  1  0.24178203  0.98536104  0.19210516  1
  Cl  Cl38  1  0.71293326  0.01528337  0.27210773  1
  Cl  Cl39  1  0.01146758  0.23970702  0.50212949  1
  Cl  Cl40  1  0.30177427  0.01518066  0.74091980  1
  Cl  Cl41  1  0.77662931  0.98401822  0.78719824  1
  Cl  Cl42  1  0.51300319  0.73941303  0.00508258  1
  Cl  Cl43  1  0.74178300  0.51462409  0.30786741  1
  Cl  Cl44  1  0.21293010  0.48473192  0.22789590  1
  Cl  Cl45  1  0.01305417  0.76060752  0.49487532  1
  Cl  Cl46  1  0.27661144  0.51599486  0.71282171  1
  Cl  Cl47  1  0.80178903  0.48481801  0.75906315  1
