# generated using pymatgen
data_GeH10AuC2(N2Cl3)2
_symmetry_space_group_name_H-M   'P 1'
_cell_length_a   8.02456980
_cell_length_b   10.32882203
_cell_length_c   7.99231463
_cell_angle_alpha   89.81587855
_cell_angle_beta   89.97044901
_cell_angle_gamma   90.68733308
_symmetry_Int_Tables_number   1
_chemical_formula_structural   GeH10AuC2(N2Cl3)2
_chemical_formula_sum   'Ge2 H20 Au2 C4 N8 Cl12'
_cell_volume   662.38664386
_cell_formula_units_Z   2
loop_
 _symmetry_equiv_pos_site_id
 _symmetry_equiv_pos_as_xyz
  1  'x, y, z'
loop_
 _atom_site_type_symbol
 _atom_site_label
 _atom_site_symmetry_multiplicity
 _atom_site_fract_x
 _atom_site_fract_y
 _atom_site_fract_z
 _atom_site_occupancy
  C  C0  1  0.49427114  0.28776563  0.49905837  1
  C  C1  1  0.99846364  0.19493150  0.01878836  1
  C  C2  1  0.50654806  0.79924996  0.49504036  1
  C  C3  1  0.00120554  0.71689288  0.01148593  1
  N  N4  1  0.60749134  0.23147658  0.59122911  1
  N  N5  1  0.39342129  0.23082933  0.39326013  1
  N  N6  1  0.10427287  0.24596111  0.91207746  1
  N  N7  1  0.88575026  0.25768039  0.10398938  1
  N  N8  1  0.62289192  0.75218800  0.59171810  1
  N  N9  1  0.41045399  0.73287072  0.39326884  1
  N  N10  1  0.08181817  0.78359861  0.89708829  1
  N  N11  1  0.89203930  0.76299641  0.11650583  1
  H  H12  1  0.48272790  0.39226990  0.51284081  1
  H  H13  1  0.67663046  0.28600619  0.67249080  1
  H  H14  1  0.62588140  0.13408968  0.59534735  1
  H  H15  1  0.31295842  0.28697731  0.32659076  1
  H  H16  1  0.39494179  0.13434536  0.36521776  1
  H  H17  1  0.00657446  0.09130341  0.04131798  1
  H  H18  1  0.18796865  0.18697345  0.85424453  1
  H  H19  1  0.11140592  0.34274333  0.88441889  1
  H  H20  1  0.80376446  0.20468615  0.17497571  1
  H  H21  1  0.85997049  0.35275534  0.08254600  1
  H  H22  1  0.48719223  0.90316315  0.49960962  1
  H  H23  1  0.68514597  0.81294181  0.67176366  1
  H  H24  1  0.64729417  0.65562186  0.59869773  1
  H  H25  1  0.32723261  0.78218824  0.32134229  1
  H  H26  1  0.41581158  0.63519174  0.37845240  1
  H  H27  1  0.02952407  0.61431246  0.02036773  1
  H  H28  1  0.16366548  0.73641572  0.82182276  1
  H  H29  1  0.06560549  0.87969787  0.87610051  1
  H  H30  1  0.83417632  0.70067629  0.19790121  1
  H  H31  1  0.85526816  0.85734374  0.11948128  1
  Ge  Ge32  1  0.50086866  0.99864744  0.99829999  1
  Ge  Ge33  1  0.99478810  0.48656847  0.47292461  1
  Au  Au34  1  0.00557017  0.01319566  0.49514433  1
  Au  Au35  1  0.51509961  0.50187088  0.82117727  1
  Cl  Cl36  1  0.50022915  0.22062459  0.00130001  1
  Cl  Cl37  1  0.26920123  0.98645457  0.18219284  1
  Cl  Cl38  1  0.68104337  0.00661887  0.23897778  1
  Cl  Cl39  1  0.00042866  0.23849704  0.51970042  1
  Cl  Cl40  1  0.32668680  0.00715636  0.76137012  1
  Cl  Cl41  1  0.74235704  0.99762044  0.82279972  1
  Cl  Cl42  1  0.50257341  0.77762042  0.99475917  1
  Cl  Cl43  1  0.74449241  0.50732083  0.31394619  1
  Cl  Cl44  1  0.18916886  0.48045096  0.25007621  1
  Cl  Cl45  1  0.01922737  0.79014077  0.50025948  1
  Cl  Cl46  1  0.23621624  0.51992758  0.76654427  1
  Cl  Cl47  1  0.79970068  0.48120397  0.82159246  1
