# generated using pymatgen
data_GeH10PtC2(N2Cl3)2
_symmetry_space_group_name_H-M   'P 1'
_cell_length_a   7.67491507
_cell_length_b   10.34201273
_cell_length_c   8.36936033
_cell_angle_alpha   90.39455625
_cell_angle_beta   93.29662543
_cell_angle_gamma   91.15150952
_symmetry_Int_Tables_number   1
_chemical_formula_structural   GeH10PtC2(N2Cl3)2
_chemical_formula_sum   'Ge2 H20 Pt2 C4 N8 Cl12'
_cell_volume   663.05543275
_cell_formula_units_Z   2
loop_
 _symmetry_equiv_pos_site_id
 _symmetry_equiv_pos_as_xyz
  1  'x, y, z'
loop_
 _atom_site_type_symbol
 _atom_site_label
 _atom_site_symmetry_multiplicity
 _atom_site_fract_x
 _atom_site_fract_y
 _atom_site_fract_z
 _atom_site_occupancy
  C  C0  1  0.48487486  0.29713062  0.48310853  1
  C  C1  1  0.99467465  0.21296152  0.04554144  1
  C  C2  1  0.52940721  0.79568880  0.51113199  1
  C  C3  1  0.00735110  0.71359053  0.99155706  1
  N  N4  1  0.54617885  0.24560094  0.61572881  1
  N  N5  1  0.42407941  0.23354796  0.35416400  1
  N  N6  1  0.05914674  0.26460966  0.91920061  1
  N  N7  1  0.87374004  0.26464747  0.13023155  1
  N  N8  1  0.63959977  0.74714846  0.61963456  1
  N  N9  1  0.44709118  0.73189529  0.39335688  1
  N  N10  1  0.02360167  0.78204481  0.86061714  1
  N  N11  1  0.96236670  0.76007670  0.12832078  1
  H  H12  1  0.48332537  0.40246912  0.47905648  1
  H  H13  1  0.59196489  0.30388283  0.70901700  1
  H  H14  1  0.55503711  0.14835424  0.63266435  1
  H  H15  1  0.39271989  0.28384937  0.25174418  1
  H  H16  1  0.43039508  0.13549466  0.34266460  1
  H  H17  1  0.04838522  0.12114677  0.08707497  1
  H  H18  1  0.15603113  0.21887967  0.86303311  1
  H  H19  1  0.01426603  0.34891987  0.87060829  1
  H  H20  1  0.81604859  0.20561413  0.21090048  1
  H  H21  1  0.80547623  0.34336338  0.09013493  1
  H  H22  1  0.50174941  0.89834096  0.52158409  1
  H  H23  1  0.70012726  0.80978806  0.70120983  1
  H  H24  1  0.67582124  0.65243538  0.62155631  1
  H  H25  1  0.36487850  0.78084058  0.31617273  1
  H  H26  1  0.46692241  0.63717542  0.36677129  1
  H  H27  1  0.03813908  0.61131794  0.98540322  1
  H  H28  1  0.05589523  0.73868906  0.75596519  1
  H  H29  1  0.98937085  0.87684060  0.85322815  1
  H  H30  1  0.94253082  0.69953354  0.22190757  1
  H  H31  1  0.92404994  0.85331585  0.14489664  1
  Ge  Ge32  1  0.41029597  0.87178869  0.89373258  1
  Ge  Ge33  1  0.06751778  0.42144877  0.42785078  1
  Pt  Pt34  1  0.00050475  0.02777564  0.50699113  1
  Pt  Pt35  1  0.51913691  0.48997980  0.99558091  1
  Cl  Cl36  1  0.47881160  0.26978059  0.97869635  1
  Cl  Cl37  1  0.31558619  0.96621170  0.13050158  1
  Cl  Cl38  1  0.76701841  0.00485584  0.32005959  1
  Cl  Cl39  1  0.92275921  0.23878856  0.55550561  1
  Cl  Cl40  1  0.23945355  0.05788199  0.68439838  1
  Cl  Cl41  1  0.67853715  0.99037755  0.86176125  1
  Cl  Cl42  1  0.58034681  0.70638174  0.04558754  1
  Cl  Cl43  1  0.80158111  0.52726907  0.37811471  1
  Cl  Cl44  1  0.29162377  0.49772458  0.16389127  1
  Cl  Cl45  1  0.06067300  0.81280700  0.48849356  1
  Cl  Cl46  1  0.17695116  0.51619334  0.66973347  1
  Cl  Cl47  1  0.74397553  0.48160392  0.82101931  1
