# generated using pymatgen
data_BaGeH10C2(N2Cl3)2
_symmetry_space_group_name_H-M   'P 1'
_cell_length_a   7.94444068
_cell_length_b   11.07340037
_cell_length_c   8.08890700
_cell_angle_alpha   89.77321348
_cell_angle_beta   90.03062437
_cell_angle_gamma   89.94979703
_symmetry_Int_Tables_number   1
_chemical_formula_structural   BaGeH10C2(N2Cl3)2
_chemical_formula_sum   'Ba2 Ge2 H20 C4 N8 Cl12'
_cell_volume   711.59115267
_cell_formula_units_Z   2
loop_
 _symmetry_equiv_pos_site_id
 _symmetry_equiv_pos_as_xyz
  1  'x, y, z'
loop_
 _atom_site_type_symbol
 _atom_site_label
 _atom_site_symmetry_multiplicity
 _atom_site_fract_x
 _atom_site_fract_y
 _atom_site_fract_z
 _atom_site_occupancy
  C  C0  1  0.48734943  0.29208373  0.50734991  1
  C  C1  1  0.98616220  0.20807379  0.99321337  1
  C  C2  1  0.50843322  0.79378099  0.48126742  1
  C  C3  1  0.00828241  0.70592670  0.01744097  1
  N  N4  1  0.61155077  0.24133914  0.58837278  1
  N  N5  1  0.41138035  0.24421924  0.37895041  1
  N  N6  1  0.11140062  0.25837636  0.91359038  1
  N  N7  1  0.91088866  0.25541602  0.12238615  1
  N  N8  1  0.57438677  0.74885723  0.61616439  1
  N  N9  1  0.38257302  0.74495435  0.39906213  1
  N  N10  1  0.07398776  0.75109393  0.88272633  1
  N  N11  1  0.88233531  0.75458892  0.09977879  1
  H  H12  1  0.44223218  0.37971565  0.55112198  1
  H  H13  1  0.66810618  0.28640696  0.68283404  1
  H  H14  1  0.65885614  0.15925948  0.55575672  1
  H  H15  1  0.31750947  0.29264365  0.32252014  1
  H  H16  1  0.45325712  0.16633955  0.32522718  1
  H  H17  1  0.93955872  0.12135597  0.94767901  1
  H  H18  1  0.16747230  0.21378802  0.81841871  1
  H  H19  1  0.16066871  0.33920400  0.94895361  1
  H  H20  1  0.81601445  0.20749342  0.17767573  1
  H  H21  1  0.95359095  0.33260451  0.17722110  1
  H  H22  1  0.56145755  0.87766020  0.43162919  1
  H  H23  1  0.66539041  0.79712461  0.67673281  1
  H  H24  1  0.52728623  0.67167884  0.66859499  1
  H  H25  1  0.34756612  0.78212136  0.28855343  1
  H  H26  1  0.32148342  0.66946149  0.43988392  1
  H  H27  1  0.06151341  0.62194758  0.06680972  1
  H  H28  1  0.16502765  0.70290946  0.82194722  1
  H  H29  1  0.02666461  0.82837638  0.83053809  1
  H  H30  1  0.84800566  0.71757452  0.21053128  1
  H  H31  1  0.82126988  0.83029654  0.05936773  1
  Ge  Ge32  1  0.49070901  0.00454580  0.97228856  1
  Ge  Ge33  1  0.99097931  0.49581747  0.52784041  1
  Ba  Ba34  1  0.02755541  0.99836047  0.46686268  1
  Ba  Ba35  1  0.52773441  0.50240914  0.03273053  1
  Cl  Cl36  1  0.50904233  0.23802153  0.97706370  1
  Cl  Cl37  1  0.23799515  1.00149245  0.15884141  1
  Cl  Cl38  1  0.69881397  0.03120815  0.27921551  1
  Cl  Cl39  1  0.00947014  0.26268551  0.52424357  1
  Cl  Cl40  1  0.31225904  0.01113364  0.71780149  1
  Cl  Cl41  1  0.80318077  0.96774065  0.77572998  1
  Cl  Cl42  1  0.48348087  0.76805249  0.00802382  1
  Cl  Cl43  1  0.73818241  0.49858132  0.34094911  1
  Cl  Cl44  1  0.19942805  0.46840437  0.22051522  1
  Cl  Cl45  1  0.98373396  0.73267705  0.49062597  1
  Cl  Cl46  1  0.30370432  0.53283227  0.72331509  1
  Cl  Cl47  1  0.81208851  0.48942806  0.78175806  1
