# generated using pymatgen
data_SnGeH10C2(N2Cl3)2
_symmetry_space_group_name_H-M   'P 1'
_cell_length_a   7.91962261
_cell_length_b   10.95167369
_cell_length_c   7.91449286
_cell_angle_alpha   89.37368558
_cell_angle_beta   89.72266169
_cell_angle_gamma   89.39422722
_symmetry_Int_Tables_number   1
_chemical_formula_structural   SnGeH10C2(N2Cl3)2
_chemical_formula_sum   'Sn2 Ge2 H20 C4 N8 Cl12'
_cell_volume   686.36164006
_cell_formula_units_Z   2
loop_
 _symmetry_equiv_pos_site_id
 _symmetry_equiv_pos_as_xyz
  1  'x, y, z'
loop_
 _atom_site_type_symbol
 _atom_site_label
 _atom_site_symmetry_multiplicity
 _atom_site_fract_x
 _atom_site_fract_y
 _atom_site_fract_z
 _atom_site_occupancy
  C  C0  1  0.49192868  0.29279197  0.49942598  1
  C  C1  1  0.99280760  0.21119911  0.00228483  1
  C  C2  1  0.50609878  0.79282599  0.49877224  1
  C  C3  1  0.00433248  0.71092057  0.99511722  1
  N  N4  1  0.59886094  0.23981943  0.60305326  1
  N  N5  1  0.39084845  0.23695804  0.39559869  1
  N  N6  1  0.09988175  0.26541328  0.90032897  1
  N  N7  1  0.88992603  0.26542979  0.10835057  1
  N  N8  1  0.60889671  0.73760808  0.60438413  1
  N  N9  1  0.40107571  0.73921709  0.39659365  1
  N  N10  1  0.10764800  0.76508541  0.88935472  1
  N  N11  1  0.89926568  0.76530279  0.09897900  1
  H  H12  1  0.48601487  0.39220730  0.50006993  1
  H  H13  1  0.67387157  0.29338384  0.67556332  1
  H  H14  1  0.61420758  0.14737912  0.61419249  1
  H  H15  1  0.31010101  0.28855699  0.32358267  1
  H  H16  1  0.38837649  0.14456437  0.38114447  1
  H  H17  1  0.98896059  0.11181013  0.99845291  1
  H  H18  1  0.17411474  0.21253185  0.82406350  1
  H  H19  1  0.11224688  0.35783571  0.88943719  1
  H  H20  1  0.81351130  0.21224493  0.18231213  1
  H  H21  1  0.88514363  0.35765125  0.12575166  1
  H  H22  1  0.50872286  0.89224731  0.49526805  1
  H  H23  1  0.68227809  0.78987725  0.68024658  1
  H  H24  1  0.61855613  0.64493903  0.61811501  1
  H  H25  1  0.32986135  0.79207553  0.31662903  1
  H  H26  1  0.38545328  0.64700287  0.39214398  1
  H  H27  1  0.00612022  0.61138484  0.99716508  1
  H  H28  1  0.18434110  0.71180091  0.81580862  1
  H  H29  1  0.12018251  0.85759208  0.87946172  1
  H  H30  1  0.82547001  0.71242580  0.17578440  1
  H  H31  1  0.88355300  0.85771146  0.10623605  1
  Ge  Ge32  1  0.48265855  0.00728683  0.99080483  1
  Ge  Ge33  1  0.99377291  0.50783127  0.48549237  1
  Sn  Sn34  1  0.99152983  0.00363385  0.49573665  1
  Sn  Sn35  1  0.49905402  0.50285205  0.99431192  1
  Cl  Cl36  1  0.49423117  0.22230679  0.00244204  1
  Cl  Cl37  1  0.24333117  0.98707997  0.19448399  1
  Cl  Cl38  1  0.73123591  0.01602961  0.28787639  1
  Cl  Cl39  1  0.99393406  0.23448810  0.50782962  1
  Cl  Cl40  1  0.29408233  0.01525568  0.74092730  1
  Cl  Cl41  1  0.78684656  0.98568351  0.75952160  1
  Cl  Cl42  1  0.50670451  0.73383625  0.99856798  1
  Cl  Cl43  1  0.74407628  0.51534819  0.29721045  1
  Cl  Cl44  1  0.19677261  0.48655317  0.24503712  1
  Cl  Cl45  1  0.00722359  0.72290060  0.49327059  1
  Cl  Cl46  1  0.29048771  0.51567108  0.73471081  1
  Cl  Cl47  1  0.76142012  0.48551191  0.78820906  1
