# generated using pymatgen
data_HfZnH12C2(I3N)2
_symmetry_space_group_name_H-M   'P 1'
_cell_length_a   8.52324696
_cell_length_b   12.27021007
_cell_length_c   8.39515581
_cell_angle_alpha   94.30323361
_cell_angle_beta   90.00530526
_cell_angle_gamma   89.94631857
_symmetry_Int_Tables_number   1
_chemical_formula_structural   HfZnH12C2(I3N)2
_chemical_formula_sum   'Hf2 Zn2 H24 C4 I12 N4'
_cell_volume   875.50693810
_cell_formula_units_Z   2
loop_
 _symmetry_equiv_pos_site_id
 _symmetry_equiv_pos_as_xyz
  1  'x, y, z'
loop_
 _atom_site_type_symbol
 _atom_site_label
 _atom_site_symmetry_multiplicity
 _atom_site_fract_x
 _atom_site_fract_y
 _atom_site_fract_z
 _atom_site_occupancy
  C  C0  1  0.39804945  0.25073881  0.41483078  1
  C  C1  1  0.89920672  0.24956029  0.08622206  1
  C  C2  1  0.60194893  0.74926477  0.58517992  1
  C  C3  1  0.10079788  0.75044193  0.91379271  1
  N  N4  1  0.53839097  0.25235829  0.52016062  1
  N  N5  1  0.03893179  0.24769486  0.98005579  1
  N  N6  1  0.46160623  0.74764538  0.47985139  1
  N  N7  1  0.96107581  0.75230279  0.01996275  1
  H  H8  1  0.43725009  0.24718169  0.29032783  1
  H  H9  1  0.32848121  0.17838166  0.43583567  1
  H  H10  1  0.32952260  0.32516071  0.44325118  1
  H  H11  1  0.60569329  0.18211081  0.49515873  1
  H  H12  1  0.60794597  0.31953197  0.50124114  1
  H  H13  1  0.50854028  0.25623094  0.64115440  1
  H  H14  1  0.93915927  0.25317016  0.21048970  1
  H  H15  1  0.83059304  0.17519526  0.05836917  1
  H  H16  1  0.82945385  0.32198498  0.06554743  1
  H  H17  1  0.10859840  0.18043012  0.99862389  1
  H  H18  1  0.10633526  0.31785401  0.00461625  1
  H  H19  1  0.00839659  0.24382565  0.85923151  1
  H  H20  1  0.56274866  0.75282219  0.70968283  1
  H  H21  1  0.67047457  0.67484237  0.55675955  1
  H  H22  1  0.67151764  0.82162142  0.56417454  1
  H  H23  1  0.39430440  0.81789306  0.50485416  1
  H  H24  1  0.39205193  0.68047200  0.49877124  1
  H  H25  1  0.49145628  0.74377336  0.35885691  1
  H  H26  1  0.06084202  0.74683438  0.78952639  1
  H  H27  1  0.16941037  0.82480711  0.94164754  1
  H  H28  1  0.17055304  0.67801739  0.93446171  1
  H  H29  1  0.89140593  0.81956669  0.00139956  1
  H  H30  1  0.89367436  0.68214289  0.99540080  1
  H  H31  1  0.99161411  0.75617015  0.14078623  1
  Zn  Zn32  1  0.50000237  0.00001142  0.00000889  1
  Zn  Zn33  1  0.99999591  0.49999977  0.49999235  1
  Hf  Hf34  1  0.00000075  0.00000145  0.50000978  1
  Hf  Hf35  1  0.49999929  0.50000634  1.00000005  1
  I  I36  1  0.47835250  0.26789385  0.94249613  1
  I  I37  1  0.15490353  0.01961255  0.20250095  1
  I  I38  1  0.70398050  0.00103409  0.34139198  1
  I  I39  1  0.97761539  0.23206716  0.55789945  1
  I  I40  1  0.29602245  0.99896962  0.65862574  1
  I  I41  1  0.84509980  0.98038608  0.79751731  1
  I  I42  1  0.52164820  0.73211781  0.05750935  1
  I  I43  1  0.65465396  0.48033227  0.29764999  1
  I  I44  1  0.20389793  0.49908473  0.15834716  1
  I  I45  1  0.02238602  0.76793519  0.44212043  1
  I  I46  1  0.34533637  0.51967460  0.70235192  1
  I  I47  1  0.79609782  0.50092325  0.84165073  1
