# generated using pymatgen
data_CdGeH10C2(N2Cl3)2
_symmetry_space_group_name_H-M   'P 1'
_cell_length_a   8.06250018
_cell_length_b   10.12661884
_cell_length_c   8.11884656
_cell_angle_alpha   89.30742804
_cell_angle_beta   90.00871670
_cell_angle_gamma   89.36444251
_symmetry_Int_Tables_number   1
_chemical_formula_structural   CdGeH10C2(N2Cl3)2
_chemical_formula_sum   'Cd2 Ge2 H20 C4 N8 Cl12'
_cell_volume   662.78102915
_cell_formula_units_Z   2
loop_
 _symmetry_equiv_pos_site_id
 _symmetry_equiv_pos_as_xyz
  1  'x, y, z'
loop_
 _atom_site_type_symbol
 _atom_site_label
 _atom_site_symmetry_multiplicity
 _atom_site_fract_x
 _atom_site_fract_y
 _atom_site_fract_z
 _atom_site_occupancy
  C  C0  1  0.50390203  0.29423023  0.50487828  1
  C  C1  1  0.99214824  0.20664748  0.99663072  1
  C  C2  1  0.50782459  0.79481898  0.50647503  1
  C  C3  1  0.99792483  0.70595113  0.99475221  1
  N  N4  1  0.60917420  0.23988961  0.60924276  1
  N  N5  1  0.40368961  0.23205795  0.40675979  1
  N  N6  1  0.09290692  0.26641781  0.89437488  1
  N  N7  1  0.89127857  0.26340505  0.10096672  1
  N  N8  1  0.60931823  0.73722656  0.61185687  1
  N  N9  1  0.41045553  0.73589223  0.40250964  1
  N  N10  1  0.09604671  0.76259347  0.88756137  1
  N  N11  1  0.89458637  0.76578320  0.09425935  1
  H  H12  1  0.49863344  0.40164245  0.49996461  1
  H  H13  1  0.68337937  0.30041869  0.67716930  1
  H  H14  1  0.62077695  0.14049618  0.62954270  1
  H  H15  1  0.32567731  0.28604663  0.33236062  1
  H  H16  1  0.40107608  0.13205188  0.39562233  1
  H  H17  1  0.99186662  0.09928095  0.99405395  1
  H  H18  1  0.16504265  0.21001368  0.81859491  1
  H  H19  1  0.10230157  0.36633691  0.88212925  1
  H  H20  1  0.81768432  0.20468937  0.17333665  1
  H  H21  1  0.88083931  0.36310217  0.11462603  1
  H  H22  1  0.50499670  0.90228414  0.50488687  1
  H  H23  1  0.67773882  0.79579381  0.68785889  1
  H  H24  1  0.62773245  0.63752334  0.62093699  1
  H  H25  1  0.33812792  0.79207938  0.32491965  1
  H  H26  1  0.39820358  0.63609287  0.39581675  1
  H  H27  1  0.00270155  0.59864400  0.00215442  1
  H  H28  1  0.17041655  0.70392492  0.81601156  1
  H  H29  1  0.10268225  0.86227379  0.87029703  1
  H  H30  1  0.82365285  0.70937932  0.17144405  1
  H  H31  1  0.87665034  0.86550893  0.09762476  1
  Ge  Ge32  1  0.46761041  0.99974653  0.99492520  1
  Ge  Ge33  1  0.99757490  0.50012241  0.47122882  1
  Cd  Cd34  1  0.93230539  0.99792836  0.50134020  1
  Cd  Cd35  1  0.50438665  0.49774500  0.93366682  1
  Cl  Cl36  1  0.48574853  0.26501248  0.02687059  1
  Cl  Cl37  1  0.24250532  0.98732943  0.18837862  1
  Cl  Cl38  1  0.71495053  0.01555345  0.27889634  1
  Cl  Cl39  1  0.02180803  0.23063017  0.49822204  1
  Cl  Cl40  1  0.29920532  0.01452592  0.74803911  1
  Cl  Cl41  1  0.78485573  0.98272628  0.77770413  1
  Cl  Cl42  1  0.49649747  0.73002330  0.02285841  1
  Cl  Cl43  1  0.74956732  0.51486620  0.30217180  1
  Cl  Cl44  1  0.19268470  0.48720448  0.24704375  1
  Cl  Cl45  1  0.02866801  0.76579806  0.48575498  1
  Cl  Cl46  1  0.28076492  0.51562057  0.71662880  1
  Cl  Cl47  1  0.78144964  0.48273324  0.78675619  1
