# generated using pymatgen
data_AgGeH10C2(N2Cl3)2
_symmetry_space_group_name_H-M   'P 1'
_cell_length_a   7.76179967
_cell_length_b   10.21608607
_cell_length_c   7.94431888
_cell_angle_alpha   89.51353321
_cell_angle_beta   89.55606232
_cell_angle_gamma   89.94648677
_symmetry_Int_Tables_number   1
_chemical_formula_structural   AgGeH10C2(N2Cl3)2
_chemical_formula_sum   'Ag2 Ge2 H20 C4 N8 Cl12'
_cell_volume   629.90461041
_cell_formula_units_Z   2
loop_
 _symmetry_equiv_pos_site_id
 _symmetry_equiv_pos_as_xyz
  1  'x, y, z'
loop_
 _atom_site_type_symbol
 _atom_site_label
 _atom_site_symmetry_multiplicity
 _atom_site_fract_x
 _atom_site_fract_y
 _atom_site_fract_z
 _atom_site_occupancy
  C  C0  1  0.49750243  0.29012910  0.49933779  1
  C  C1  1  0.99550166  0.20537893  0.00292542  1
  C  C2  1  0.50422139  0.79801854  0.49893183  1
  C  C3  1  0.00076265  0.70666079  0.00072855  1
  N  N4  1  0.60396708  0.23519024  0.60535895  1
  N  N5  1  0.39853128  0.22920821  0.39308075  1
  N  N6  1  0.10248026  0.26191105  0.89717840  1
  N  N7  1  0.89367932  0.26497566  0.10929547  1
  N  N8  1  0.60049595  0.73956562  0.61094992  1
  N  N9  1  0.40489481  0.74008685  0.39020915  1
  N  N10  1  0.09886471  0.76570797  0.88933257  1
  N  N11  1  0.89816375  0.76381086  0.10879039  1
  H  H12  1  0.48960244  0.39638753  0.49988219  1
  H  H13  1  0.67627896  0.29384914  0.68030230  1
  H  H14  1  0.62152219  0.13649609  0.61821438  1
  H  H15  1  0.31999311  0.28360097  0.31763363  1
  H  H16  1  0.39672365  0.13024789  0.37756716  1
  H  H17  1  0.99004990  0.09906139  0.00211926  1
  H  H18  1  0.17823785  0.20402742  0.82260081  1
  H  H19  1  0.11456372  0.36066111  0.88301618  1
  H  H20  1  0.81451487  0.20786102  0.18335274  1
  H  H21  1  0.88892011  0.36380107  0.12425771  1
  H  H22  1  0.50757945  0.90435255  0.49552538  1
  H  H23  1  0.67380555  0.79634059  0.68854989  1
  H  H24  1  0.61265780  0.64052430  0.62153029  1
  H  H25  1  0.33591070  0.79692369  0.30816842  1
  H  H26  1  0.38847172  0.64128799  0.38432002  1
  H  H27  1  0.00537321  0.60025835  0.00406798  1
  H  H28  1  0.17339817  0.71031320  0.81123927  1
  H  H29  1  0.10426017  0.86486353  0.87387007  1
  H  H30  1  0.82759135  0.70652774  0.18929715  1
  H  H31  1  0.88070569  0.86280226  0.11738821  1
  Ge  Ge32  1  0.48123403  0.99944453  0.99157037  1
  Ge  Ge33  1  0.00101771  0.50027551  0.50226306  1
  Ag  Ag34  1  0.96339890  0.99900521  0.49945863  1
  Ag  Ag35  1  0.49362325  0.49937344  0.99120073  1
  Cl  Cl36  1  0.49943759  0.26472053  -0.00001695  1
  Cl  Cl37  1  0.23563355  0.98572092  0.20033459  1
  Cl  Cl38  1  0.72781383  0.01574489  0.27509518  1
  Cl  Cl39  1  0.00282230  0.27372604  0.50470126  1
  Cl  Cl40  1  0.29448469  0.01425354  0.73638249  1
  Cl  Cl41  1  0.79031710  0.98331478  0.77685154  1
  Cl  Cl42  1  0.50079576  0.73380241  0.99896247  1
  Cl  Cl43  1  0.75806354  0.50905572  0.32280937  1
  Cl  Cl44  1  0.18926638  0.49184155  0.26377105  1
  Cl  Cl45  1  0.00321674  0.72715933  0.49929091  1
  Cl  Cl46  1  0.24453900  0.50957533  0.68577064  1
  Cl  Cl47  1  0.81512909  0.49221757  0.74263720  1
