# generated using pymatgen
data_SrGeH10C2(N2Cl3)2
_symmetry_space_group_name_H-M   'P 1'
_cell_length_a   7.86362208
_cell_length_b   10.81618134
_cell_length_c   7.84805481
_cell_angle_alpha   89.88565957
_cell_angle_beta   89.99924148
_cell_angle_gamma   89.99985378
_symmetry_Int_Tables_number   1
_chemical_formula_structural   SrGeH10C2(N2Cl3)2
_chemical_formula_sum   'Sr2 Ge2 H20 C4 N8 Cl12'
_cell_volume   667.50996847
_cell_formula_units_Z   2
loop_
 _symmetry_equiv_pos_site_id
 _symmetry_equiv_pos_as_xyz
  1  'x, y, z'
loop_
 _atom_site_type_symbol
 _atom_site_label
 _atom_site_symmetry_multiplicity
 _atom_site_fract_x
 _atom_site_fract_y
 _atom_site_fract_z
 _atom_site_occupancy
  C  C0  1  0.49410481  0.29282882  0.49655602  1
  C  C1  1  0.99415311  0.20715796  0.00344674  1
  C  C2  1  0.50557597  0.79283555  0.50352669  1
  C  C3  1  0.00551679  0.70716955  0.99646504  1
  N  N4  1  0.60179848  0.23765080  0.59871706  1
  N  N5  1  0.39085924  0.23779535  0.39009192  1
  N  N6  1  0.10187809  0.26234464  0.90131971  1
  N  N7  1  0.89087613  0.26220646  0.10993340  1
  N  N8  1  0.60872531  0.73779817  0.61035580  1
  N  N9  1  0.39851733  0.73762608  0.40093822  1
  N  N10  1  0.10868056  0.76221400  0.88964727  1
  N  N11  1  0.89843231  0.76236694  0.09903317  1
  H  H12  1  0.48965477  0.39341107  0.50084341  1
  H  H13  1  0.67840808  0.29045982  0.67436650  1
  H  H14  1  0.61173258  0.14400408  0.60946984  1
  H  H15  1  0.31046137  0.29120304  0.31877031  1
  H  H16  1  0.38799037  0.14450405  0.37131289  1
  H  H17  1  0.98967331  0.10658857  0.99914074  1
  H  H18  1  0.17848331  0.20953399  0.82568025  1
  H  H19  1  0.11183605  0.35599328  0.89060626  1
  H  H20  1  0.81047224  0.20879342  0.18120225  1
  H  H21  1  0.88804000  0.35548653  0.12870839  1
  H  H22  1  0.50946900  0.89343416  0.49928726  1
  H  H23  1  0.68423202  0.79132737  0.68637199  1
  H  H24  1  0.62077036  0.64413953  0.62036061  1
  H  H25  1  0.32642267  0.79031976  0.32057013  1
  H  H26  1  0.38017100  0.64434925  0.39915840  1
  H  H27  1  0.00942247  0.60656978  0.00070548  1
  H  H28  1  0.18420668  0.70869287  0.81365299  1
  H  H29  1  0.12071245  0.85587223  0.87965538  1
  H  H30  1  0.82633143  0.70966741  0.17939365  1
  H  H31  1  0.88006626  0.85564826  0.10080950  1
  Ge  Ge32  1  0.49835914  1.00000176  0.99778228  1
  Ge  Ge33  1  0.99836591  0.50000848  0.50222837  1
  Sr  Sr34  1  0.00079140  0.00003401  0.49698112  1
  Sr  Sr35  1  0.50079080  0.49997857  0.00301973  1
  Cl  Cl36  1  0.49855671  0.23978081  0.99492015  1
  Cl  Cl37  1  0.22787807  0.98504003  0.20792853  1
  Cl  Cl38  1  0.70900440  0.01647822  0.27381448  1
  Cl  Cl39  1  0.99852109  0.26023214  0.50512501  1
  Cl  Cl40  1  0.28883113  0.01489693  0.72527699  1
  Cl  Cl41  1  0.77625142  0.98367036  0.78774508  1
  Cl  Cl42  1  0.50151596  0.76022991  0.00500018  1
  Cl  Cl43  1  0.72785749  0.51496729  0.29207778  1
  Cl  Cl44  1  0.20899125  0.48352000  0.22616940  1
  Cl  Cl45  1  0.00157251  0.73978262  0.49495638  1
  Cl  Cl46  1  0.27623959  0.51633777  0.71226142  1
  Cl  Cl47  1  0.78881792  0.48511129  0.77472058  1
