# generated using pymatgen
data_TlAsH10C2(N2Cl3)2
_symmetry_space_group_name_H-M   'P 1'
_cell_length_a   7.88603160
_cell_length_b   10.88217775
_cell_length_c   7.86843205
_cell_angle_alpha   89.68845192
_cell_angle_beta   90.00037151
_cell_angle_gamma   90.00161069
_symmetry_Int_Tables_number   1
_chemical_formula_structural   TlAsH10C2(N2Cl3)2
_chemical_formula_sum   'Tl2 As2 H20 C4 N8 Cl12'
_cell_volume   675.23680560
_cell_formula_units_Z   2
loop_
 _symmetry_equiv_pos_site_id
 _symmetry_equiv_pos_as_xyz
  1  'x, y, z'
loop_
 _atom_site_type_symbol
 _atom_site_label
 _atom_site_symmetry_multiplicity
 _atom_site_fract_x
 _atom_site_fract_y
 _atom_site_fract_z
 _atom_site_occupancy
  C  C0  1  0.49445721  0.29256050  0.49639617  1
  C  C1  1  0.99447470  0.20743134  0.00363629  1
  C  C2  1  0.50519590  0.79258284  0.50329216  1
  C  C3  1  0.00514811  0.70741725  0.99669523  1
  N  N4  1  0.60301543  0.23779085  0.59745878  1
  N  N5  1  0.39047377  0.23811199  0.39107725  1
  N  N6  1  0.10311774  0.26219804  0.90254618  1
  N  N7  1  0.89048592  0.26188289  0.10895411  1
  N  N8  1  0.60741647  0.73809547  0.61101670  1
  N  N9  1  0.39931565  0.73780241  0.39999469  1
  N  N10  1  0.10736643  0.76191637  0.88898855  1
  N  N11  1  0.89923476  0.76218872  0.09998120  1
  H  H12  1  0.48983455  0.39253409  0.50052728  1
  H  H13  1  0.68098706  0.29057491  0.67059719  1
  H  H14  1  0.61186136  0.14474655  0.61155653  1
  H  H15  1  0.30822220  0.29146916  0.32260411  1
  H  H16  1  0.38857349  0.14558331  0.36997141  1
  H  H17  1  0.98984862  0.10747236  0.99946629  1
  H  H18  1  0.18103560  0.20943860  0.82946403  1
  H  H19  1  0.11195188  0.35526324  0.88850686  1
  H  H20  1  0.80824922  0.20853934  0.17736901  1
  H  H21  1  0.88862398  0.35440547  0.13005009  1
  H  H22  1  0.50875914  0.89258819  0.49887648  1
  H  H23  1  0.68000089  0.79166082  0.68861334  1
  H  H24  1  0.62247085  0.64508121  0.62020832  1
  H  H25  1  0.32974417  0.79040368  0.31800553  1
  H  H26  1  0.37864249  0.64521505  0.39928008  1
  H  H27  1  0.00872609  0.60741644  0.00111826  1
  H  H28  1  0.17997598  0.70836519  0.81140520  1
  H  H29  1  0.12240750  0.85492949  0.87979986  1
  H  H30  1  0.82966528  0.70957766  0.18196231  1
  H  H31  1  0.87854551  0.85477375  0.10068757  1
  As  As32  1  0.49891657  0.00003098  0.99789280  1
  As  As33  1  0.99891831  0.49997473  0.50211303  1
  Tl  Tl34  1  0.00036769  0.00003319  0.49681200  1
  Tl  Tl35  1  0.50037090  0.49997404  0.00319008  1
  Cl  Cl36  1  0.49912710  0.22579333  0.99469660  1
  Cl  Cl37  1  0.24598364  0.98911870  0.19260080  1
  Cl  Cl38  1  0.69464616  0.01225916  0.25465354  1
  Cl  Cl39  1  0.99909083  0.27421493  0.50534067  1
  Cl  Cl40  1  0.30422740  0.01051992  0.74339158  1
  Cl  Cl41  1  0.75660017  0.98835321  0.80157777  1
  Cl  Cl42  1  0.50124372  0.77428256  0.00375934  1
  Cl  Cl43  1  0.74597028  0.51088087  0.30740348  1
  Cl  Cl44  1  0.19463897  0.48773135  0.24533632  1
  Cl  Cl45  1  0.00128803  0.72572528  0.49619964  1
  Cl  Cl46  1  0.25658739  0.51165662  0.69842550  1
  Cl  Cl47  1  0.80421421  0.48949691  0.75660455  1
