# generated using pymatgen
data_AsH10AuC2(N2Cl3)2
_symmetry_space_group_name_H-M   'P 1'
_cell_length_a   7.21716912
_cell_length_b   10.37966716
_cell_length_c   8.85638687
_cell_angle_alpha   88.37028977
_cell_angle_beta   89.37931199
_cell_angle_gamma   89.54143071
_symmetry_Int_Tables_number   1
_chemical_formula_structural   AsH10AuC2(N2Cl3)2
_chemical_formula_sum   'As2 H20 Au2 C4 N8 Cl12'
_cell_volume   663.12106952
_cell_formula_units_Z   2
loop_
 _symmetry_equiv_pos_site_id
 _symmetry_equiv_pos_as_xyz
  1  'x, y, z'
loop_
 _atom_site_type_symbol
 _atom_site_label
 _atom_site_symmetry_multiplicity
 _atom_site_fract_x
 _atom_site_fract_y
 _atom_site_fract_z
 _atom_site_occupancy
  C  C0  1  0.51504365  0.29404572  0.48198849  1
  C  C1  1  0.00821309  0.20485813  0.01662202  1
  C  C2  1  0.46877243  0.78867815  0.49707492  1
  C  C3  1  0.98168164  0.71176839  0.00024566  1
  N  N4  1  0.54461019  0.23819382  0.61427223  1
  N  N5  1  0.42074717  0.24520156  0.37152655  1
  N  N6  1  0.03521208  0.26863850  0.88845247  1
  N  N7  1  0.91354567  0.24626796  0.13341895  1
  N  N8  1  0.54881142  0.75011006  0.62236643  1
  N  N9  1  0.46105502  0.72336461  0.37189958  1
  N  N10  1  0.06484377  0.75088577  0.87539922  1
  N  N11  1  0.96748419  0.77695340  0.12537946  1
  H  H12  1  0.57634561  0.38856802  0.46020698  1
  H  H13  1  0.61530151  0.28821083  0.69246370  1
  H  H14  1  0.48507789  0.15249294  0.64717988  1
  H  H15  1  0.40209995  0.29903287  0.27412207  1
  H  H16  1  0.36459177  0.15454151  0.37493122  1
  H  H17  1  0.07184740  0.10954506  0.02828063  1
  H  H18  1  0.10675529  0.22404098  0.80454187  1
  H  H19  1  0.97269822  0.35559154  0.86336334  1
  H  H20  1  0.89854333  0.18674792  0.22702915  1
  H  H21  1  0.85760966  0.33750497  0.13969140  1
  H  H22  1  0.39863033  0.88207801  0.49664513  1
  H  H23  1  0.54498437  0.80762613  0.71385257  1
  H  H24  1  0.61250898  0.66220445  0.63710508  1
  H  H25  1  0.39861988  0.76888401  0.28175834  1
  H  H26  1  0.53983689  0.64247940  0.35198700  1
  H  H27  1  0.91488591  0.61792132  0.00049797  1
  H  H28  1  0.06632971  0.69330964  0.78392942  1
  H  H29  1  0.12474366  0.83956965  0.86080076  1
  H  H30  1  0.90233176  0.73182733  0.21511018  1
  H  H31  1  0.04205204  0.85864223  0.14537718  1
  As  As32  1  0.58479252  0.98806238  0.06286709  1
  As  As33  1  0.08469904  0.51338492  0.43699334  1
  Au  Au34  1  0.00996417  0.01393676  0.53846570  1
  Au  Au35  1  0.50897663  0.48589994  0.96397462  1
  Cl  Cl36  1  0.46352740  0.17810311  0.98121061  1
  Cl  Cl37  1  0.27426832  0.98246523  0.23396606  1
  Cl  Cl38  1  0.76793217  0.01440108  0.37272849  1
  Cl  Cl39  1  0.96746127  0.32187699  0.51674843  1
  Cl  Cl40  1  0.24660384  0.01482035  0.71138008  1
  Cl  Cl41  1  0.77557428  0.99140032  0.85021780  1
  Cl  Cl42  1  0.46807065  0.79819970  0.98373145  1
  Cl  Cl43  1  0.77837497  0.51888210  0.26390079  1
  Cl  Cl44  1  0.26547018  0.47543606  0.13167240  1
  Cl  Cl45  1  0.96005345  0.70184967  0.51837558  1
  Cl  Cl46  1  0.27264908  0.50792767  0.64853482  1
  Cl  Cl47  1  0.74578688  0.49363179  0.78781763  1
