# generated using pymatgen
data_InAsH10C2(N2Cl3)2
_symmetry_space_group_name_H-M   'P 1'
_cell_length_a   7.85171316
_cell_length_b   10.78298047
_cell_length_c   7.83523475
_cell_angle_alpha   89.69161065
_cell_angle_beta   90.00117527
_cell_angle_gamma   90.00194623
_symmetry_Int_Tables_number   1
_chemical_formula_structural   InAsH10C2(N2Cl3)2
_chemical_formula_sum   'In2 As2 H20 C4 N8 Cl12'
_cell_volume   663.35951955
_cell_formula_units_Z   2
loop_
 _symmetry_equiv_pos_site_id
 _symmetry_equiv_pos_as_xyz
  1  'x, y, z'
loop_
 _atom_site_type_symbol
 _atom_site_label
 _atom_site_symmetry_multiplicity
 _atom_site_fract_x
 _atom_site_fract_y
 _atom_site_fract_z
 _atom_site_occupancy
  C  C0  1  0.49444382  0.29276160  0.49656957  1
  C  C1  1  0.99446579  0.20724467  0.00345783  1
  C  C2  1  0.50511779  0.79276506  0.50328794  1
  C  C3  1  0.00508500  0.70724249  0.99668014  1
  N  N4  1  0.60305565  0.23751469  0.59834285  1
  N  N5  1  0.39030017  0.23773716  0.39071599  1
  N  N6  1  0.10309932  0.26247318  0.90172138  1
  N  N7  1  0.89033558  0.26225699  0.10929002  1
  N  N8  1  0.60796691  0.73773676  0.61106230  1
  N  N9  1  0.39871400  0.73750140  0.39991645  1
  N  N10  1  0.10791517  0.76227046  0.88894967  1
  N  N11  1  0.89863915  0.76248877  0.10004769  1
  H  H12  1  0.48986428  0.39359978  0.50052247  1
  H  H13  1  0.68004647  0.29077514  0.67306634  1
  H  H14  1  0.61345881  0.14360328  0.61095462  1
  H  H15  1  0.30924032  0.29158506  0.32035313  1
  H  H16  1  0.38686466  0.14423333  0.37132499  1
  H  H17  1  0.98986330  0.10639311  0.99947707  1
  H  H18  1  0.18009856  0.20922009  0.82699645  1
  H  H19  1  0.11354004  0.35639449  0.88913050  1
  H  H20  1  0.80923348  0.20841008  0.17964152  1
  H  H21  1  0.88690654  0.35576325  0.12870650  1
  H  H22  1  0.50875818  0.89365299  0.49898842  1
  H  H23  1  0.68235076  0.79171776  0.68759445  1
  H  H24  1  0.62138257  0.64384092  0.62179669  1
  H  H25  1  0.32734433  0.79068150  0.31894168  1
  H  H26  1  0.37951494  0.64396089  0.39750110  1
  H  H27  1  0.00873058  0.60634728  0.00099205  1
  H  H28  1  0.18233299  0.70830749  0.81241761  1
  H  H29  1  0.12132574  0.85617916  0.87821089  1
  H  H30  1  0.82727586  0.70929962  0.18100494  1
  H  H31  1  0.87942765  0.85602712  0.10245124  1
  As  As32  1  0.49845202  0.00001955  0.99808833  1
  As  As33  1  0.99845760  0.49998650  0.50191771  1
  In  In34  1  0.99945301  0.00002893  0.49793516  1
  In  In35  1  0.49946431  0.49997430  0.00206681  1
  Cl  Cl36  1  0.49888697  0.22962247  0.99564725  1
  Cl  Cl37  1  0.24609009  0.98884010  0.19653366  1
  Cl  Cl38  1  0.69954556  0.01179298  0.25549683  1
  Cl  Cl39  1  0.99885524  0.27039883  0.50438836  1
  Cl  Cl40  1  0.29955995  0.01118652  0.74266756  1
  Cl  Cl41  1  0.75857503  0.98838239  0.79596844  1
  Cl  Cl42  1  0.50112159  0.77042582  0.00336773  1
  Cl  Cl43  1  0.74606487  0.51116099  0.30345652  1
  Cl  Cl44  1  0.19952653  0.48820545  0.24450548  1
  Cl  Cl45  1  0.00115590  0.72959468  0.49658873  1
  Cl  Cl46  1  0.25856370  0.51163055  0.70403374  1
  Cl  Cl47  1  0.79954856  0.48882735  0.75732798  1
