# generated using pymatgen
data_AgAsH10C2(N2Cl3)2
_symmetry_space_group_name_H-M   'P 1'
_cell_length_a   7.99375405
_cell_length_b   10.01771880
_cell_length_c   7.97135413
_cell_angle_alpha   89.19560425
_cell_angle_beta   90.00303244
_cell_angle_gamma   90.00172691
_symmetry_Int_Tables_number   1
_chemical_formula_structural   AgAsH10C2(N2Cl3)2
_chemical_formula_sum   'Ag2 As2 H20 C4 N8 Cl12'
_cell_volume   638.27659441
_cell_formula_units_Z   2
loop_
 _symmetry_equiv_pos_site_id
 _symmetry_equiv_pos_as_xyz
  1  'x, y, z'
loop_
 _atom_site_type_symbol
 _atom_site_label
 _atom_site_symmetry_multiplicity
 _atom_site_fract_x
 _atom_site_fract_y
 _atom_site_fract_z
 _atom_site_occupancy
  C  C0  1  0.49709166  0.29582105  0.49796800  1
  C  C1  1  0.99710187  0.20418494  0.00204057  1
  C  C2  1  0.50290607  0.79486656  0.50057195  1
  C  C3  1  0.00288338  0.70513196  0.99943590  1
  N  N4  1  0.60680236  0.23865144  0.59727477  1
  N  N5  1  0.39445215  0.23493104  0.39693160  1
  N  N6  1  0.10681521  0.26135610  0.90274282  1
  N  N7  1  0.89447955  0.26507153  0.10308056  1
  N  N8  1  0.60088881  0.73599765  0.61013084  1
  N  N9  1  0.40107410  0.73573700  0.39694173  1
  N  N10  1  0.10083903  0.76400880  0.88986230  1
  N  N11  1  0.90103280  0.76425029  0.10304041  1
  H  H12  1  0.48936889  0.40410085  0.50021034  1
  H  H13  1  0.68197554  0.29713081  0.66917330  1
  H  H14  1  0.61969351  0.13789476  0.61184084  1
  H  H15  1  0.31278934  0.29201062  0.32762154  1
  H  H16  1  0.39345250  0.13446822  0.37935188  1
  H  H17  1  0.98936139  0.09590625  0.99978237  1
  H  H18  1  0.18197293  0.20287690  0.83084089  1
  H  H19  1  0.11972492  0.36211264  0.88819198  1
  H  H20  1  0.81281321  0.20799010  0.17238087  1
  H  H21  1  0.89349786  0.36553241  0.12067799  1
  H  H22  1  0.50762295  0.90325604  0.49430477  1
  H  H23  1  0.67200642  0.79419190  0.68710046  1
  H  H24  1  0.60991679  0.63515221  0.62480497  1
  H  H25  1  0.33266454  0.79326226  0.31553355  1
  H  H26  1  0.38057012  0.63528995  0.39465928  1
  H  H27  1  0.00764886  0.59674522  0.00574045  1
  H  H28  1  0.17197636  0.70582105  0.81291633  1
  H  H29  1  0.10981876  0.86485349  0.87515250  1
  H  H30  1  0.83265474  0.70671772  0.18446519  1
  H  H31  1  0.88049183  0.86469294  0.10529657  1
  As  As32  1  0.49525014  0.00035395  0.99603140  1
  As  As33  1  0.99527345  0.49965242  0.50398170  1
  Ag  Ag34  1  0.93664178  0.99920964  0.50423779  1
  Ag  Ag35  1  0.43664520  0.50079154  0.99581719  1
  Cl  Cl36  1  0.50745771  0.25086440  0.99732606  1
  Cl  Cl37  1  0.25865754  0.98950287  0.18158949  1
  Cl  Cl38  1  0.70584186  0.01338157  0.26101608  1
  Cl  Cl39  1  0.00744375  0.24914815  0.50267901  1
  Cl  Cl40  1  0.31741040  0.01142523  0.75276862  1
  Cl  Cl41  1  0.76656630  0.98586819  0.79364018  1
  Cl  Cl42  1  0.50894468  0.74944083  0.00337559  1
  Cl  Cl43  1  0.75865476  0.51049330  0.31840130  1
  Cl  Cl44  1  0.20585030  0.48661360  0.23898428  1
  Cl  Cl45  1  0.00898280  0.75057488  0.49659348  1
  Cl  Cl46  1  0.26656497  0.51414171  0.70637709  1
  Cl  Cl47  1  0.81744522  0.48858599  0.74721795  1
