# generated using pymatgen
data_SrH10PbC2(N2Cl3)2
_symmetry_space_group_name_H-M   'P 1'
_cell_length_a   8.03207954
_cell_length_b   11.14149371
_cell_length_c   8.01628030
_cell_angle_alpha   90.06321630
_cell_angle_beta   89.99886036
_cell_angle_gamma   89.99592142
_symmetry_Int_Tables_number   1
_chemical_formula_structural   SrH10PbC2(N2Cl3)2
_chemical_formula_sum   'Sr2 H20 Pb2 C4 N8 Cl12'
_cell_volume   717.37138433
_cell_formula_units_Z   2
loop_
 _symmetry_equiv_pos_site_id
 _symmetry_equiv_pos_as_xyz
  1  'x, y, z'
loop_
 _atom_site_type_symbol
 _atom_site_label
 _atom_site_symmetry_multiplicity
 _atom_site_fract_x
 _atom_site_fract_y
 _atom_site_fract_z
 _atom_site_occupancy
  C  C0  1  0.49323786  0.29252835  0.49606433  1
  C  C1  1  0.99325081  0.20751927  0.00390657  1
  C  C2  1  0.50713141  0.79248853  0.50364980  1
  C  C3  1  0.00703841  0.70746012  0.99635614  1
  N  N4  1  0.59933412  0.23950668  0.59595909  1
  N  N5  1  0.39237063  0.23881663  0.39141674  1
  N  N6  1  0.09939531  0.26055976  0.90406505  1
  N  N7  1  0.89240897  0.26121186  0.10857433  1
  N  N8  1  0.60738126  0.73877496  0.60875410  1
  N  N9  1  0.40132854  0.73948468  0.40329563  1
  N  N10  1  0.10731343  0.76117819  0.89128634  1
  N  N11  1  0.90122122  0.76045805  0.09672656  1
  H  H12  1  0.48814698  0.39024810  0.50074295  1
  H  H13  1  0.67134199  0.29104674  0.67294155  1
  H  H14  1  0.61497801  0.14875425  0.60065144  1
  H  H15  1  0.31573176  0.29057778  0.31930216  1
  H  H16  1  0.38522593  0.14789433  0.37768665  1
  H  H17  1  0.98811396  0.10980695  0.99913477  1
  H  H18  1  0.17139047  0.20901592  0.82704234  1
  H  H19  1  0.11509681  0.35129224  0.89945686  1
  H  H20  1  0.81572618  0.20945692  0.18065006  1
  H  H21  1  0.88529250  0.35214806  0.12239601  1
  H  H22  1  0.51256060  0.89019137  0.49896765  1
  H  H23  1  0.68448625  0.79049003  0.68059172  1
  H  H24  1  0.61247475  0.64795841  0.62423924  1
  H  H25  1  0.32881532  0.79107769  0.32700959  1
  H  H26  1  0.38690520  0.64866176  0.39702097  1
  H  H27  1  0.01244406  0.60975600  0.00099628  1
  H  H28  1  0.18442575  0.70946077  0.81944519  1
  H  H29  1  0.11242295  0.85199144  0.87584859  1
  H  H30  1  0.82870092  0.70885716  0.17297307  1
  H  H31  1  0.88681867  0.85128555  0.10304385  1
  Sr  Sr32  1  0.49923649  0.99997236  0.99600226  1
  Sr  Sr33  1  0.99925193  0.50004803  0.50399687  1
  Pb  Pb34  1  0.00034828  0.00003486  0.49622466  1
  Pb  Pb35  1  0.50034550  0.49998387  0.00377447  1
  Cl  Cl36  1  0.49794314  0.24969168  0.99325820  1
  Cl  Cl37  1  0.22023650  0.98320418  0.21631277  1
  Cl  Cl38  1  0.71457216  0.02016663  0.28005134  1
  Cl  Cl39  1  0.99789474  0.25033022  0.50675318  1
  Cl  Cl40  1  0.28007064  0.01668502  0.71640463  1
  Cl  Cl41  1  0.78373431  0.97991737  0.78198123  1
  Cl  Cl42  1  0.50260730  0.75036476  0.00611976  1
  Cl  Cl43  1  0.72028370  0.51681842  0.28364631  1
  Cl  Cl44  1  0.21457700  0.47984086  0.21994201  1
  Cl  Cl45  1  0.00270128  0.74965198  0.49386329  1
  Cl  Cl46  1  0.28370561  0.52005958  0.71805838  1
  Cl  Cl47  1  0.77999972  0.48333464  0.78351977  1
