# generated using pymatgen
data_SrHgH10C2(N2Cl3)2
_symmetry_space_group_name_H-M   'P 1'
_cell_length_a   7.95807155
_cell_length_b   10.61838244
_cell_length_c   7.94302666
_cell_angle_alpha   90.09097853
_cell_angle_beta   90.00207714
_cell_angle_gamma   89.99924760
_symmetry_Int_Tables_number   1
_chemical_formula_structural   SrHgH10C2(N2Cl3)2
_chemical_formula_sum   'Sr2 Hg2 H20 C4 N8 Cl12'
_cell_volume   671.19957846
_cell_formula_units_Z   2
loop_
 _symmetry_equiv_pos_site_id
 _symmetry_equiv_pos_as_xyz
  1  'x, y, z'
loop_
 _atom_site_type_symbol
 _atom_site_label
 _atom_site_symmetry_multiplicity
 _atom_site_fract_x
 _atom_site_fract_y
 _atom_site_fract_z
 _atom_site_occupancy
  C  C0  1  0.49467314  0.29312970  0.49646180  1
  C  C1  1  0.99471809  0.20686539  0.00354678  1
  C  C2  1  0.50558678  0.79313778  0.50371083  1
  C  C3  1  0.00553112  0.70686484  0.99628095  1
  N  N4  1  0.60093460  0.23737762  0.59798927  1
  N  N5  1  0.39203493  0.23732041  0.39119672  1
  N  N6  1  0.10101039  0.26262097  0.90205241  1
  N  N7  1  0.89207475  0.26267786  0.10881330  1
  N  N8  1  0.60756389  0.73730414  0.60939043  1
  N  N9  1  0.39928893  0.73743300  0.40196890  1
  N  N10  1  0.10752322  0.76270827  0.89061333  1
  N  N11  1  0.89921351  0.76256268  0.09800147  1
  H  H12  1  0.49096835  0.39563898  0.50033688  1
  H  H13  1  0.67234834  0.29204943  0.67645537  1
  H  H14  1  0.61911486  0.14230737  0.60121366  1
  H  H15  1  0.31761565  0.29263300  0.31644101  1
  H  H16  1  0.37962699  0.14192238  0.38052045  1
  H  H17  1  0.99098950  0.10435933  0.99964067  1
  H  H18  1  0.17242395  0.20794666  0.82357708  1
  H  H19  1  0.11921686  0.35768732  0.89886333  1
  H  H20  1  0.81762711  0.20736493  0.18354325  1
  H  H21  1  0.87968431  0.35807516  0.11950677  1
  H  H22  1  0.50994797  0.89562012  0.49967423  1
  H  H23  1  0.68631186  0.79252113  0.67995490  1
  H  H24  1  0.61176500  0.64221031  0.62790402  1
  H  H25  1  0.32427971  0.79217593  0.32728525  1
  H  H26  1  0.38861890  0.64204756  0.39077312  1
  H  H27  1  0.00991065  0.60438270  0.00030715  1
  H  H28  1  0.18629221  0.70749765  0.82006483  1
  H  H29  1  0.11171488  0.85780012  0.87211630  1
  H  H30  1  0.82419734  0.70781231  0.17267722  1
  H  H31  1  0.88852030  0.85794994  0.10920251  1
  Sr  Sr32  1  0.49949179  0.99997167  0.99704524  1
  Sr  Sr33  1  0.99949482  0.50004011  0.50296161  1
  Hg  Hg34  1  0.00124220  0.00004312  0.49681045  1
  Hg  Hg35  1  0.50124157  0.49996791  0.00318686  1
  Cl  Cl36  1  0.49781652  0.26726676  0.99523475  1
  Cl  Cl37  1  0.21736668  0.98346115  0.21597866  1
  Cl  Cl38  1  0.71564420  0.01716588  0.28243247  1
  Cl  Cl39  1  0.99776396  0.23274229  0.50481553  1
  Cl  Cl40  1  0.28198638  0.01685138  0.71457503  1
  Cl  Cl41  1  0.78517663  0.98251300  0.78250502  1
  Cl  Cl42  1  0.50064544  0.73276269  0.00559024  1
  Cl  Cl43  1  0.71735614  0.51654211  0.28402883  1
  Cl  Cl44  1  0.21562624  0.48283872  0.21755244  1
  Cl  Cl45  1  0.00069417  0.76724870  0.49437712  1
  Cl  Cl46  1  0.28517526  0.51749300  0.71750556  1
  Cl  Cl47  1  0.78196926  0.48314948  0.78542075  1
