# generated using pymatgen
data_SrH10PtC2(N2Cl3)2
_symmetry_space_group_name_H-M   'P 1'
_cell_length_a   7.77253886
_cell_length_b   10.03185424
_cell_length_c   8.61943673
_cell_angle_alpha   88.28851358
_cell_angle_beta   90.00043587
_cell_angle_gamma   89.98503054
_symmetry_Int_Tables_number   1
_chemical_formula_structural   SrH10PtC2(N2Cl3)2
_chemical_formula_sum   'Sr2 H20 Pt2 C4 N8 Cl12'
_cell_volume   671.78329674
_cell_formula_units_Z   2
loop_
 _symmetry_equiv_pos_site_id
 _symmetry_equiv_pos_as_xyz
  1  'x, y, z'
loop_
 _atom_site_type_symbol
 _atom_site_label
 _atom_site_symmetry_multiplicity
 _atom_site_fract_x
 _atom_site_fract_y
 _atom_site_fract_z
 _atom_site_occupancy
  C  C0  1  0.49531742  0.28382720  0.48203964  1
  C  C1  1  0.99531354  0.21606835  0.01779295  1
  C  C2  1  0.48906390  0.79429670  0.51369860  1
  C  C3  1  0.98885933  0.70580522  0.98626561  1
  N  N4  1  0.55587695  0.24162640  0.61583223  1
  N  N5  1  0.39503421  0.21592760  0.38936604  1
  N  N6  1  0.05628863  0.25851010  0.88426910  1
  N  N7  1  0.89538603  0.28402654  0.11075413  1
  N  N8  1  0.60261486  0.73955699  0.60686453  1
  N  N9  1  0.43352741  0.74343467  0.38270993  1
  N  N10  1  0.10238121  0.76046164  0.89305260  1
  N  N11  1  0.93337209  0.75675705  0.11724361  1
  H  H12  1  0.53480100  0.38336681  0.44097888  1
  H  H13  1  0.62958178  0.30487333  0.67964505  1
  H  H14  1  0.54130344  0.14664278  0.66064383  1
  H  H15  1  0.35986215  0.25794122  0.28483873  1
  H  H16  1  0.33833270  0.12787878  0.42303667  1
  H  H17  1  0.03417012  0.11624581  0.05840127  1
  H  H18  1  0.12967477  0.19517611  0.82024966  1
  H  H19  1  0.04232826  0.35368213  0.83982518  1
  H  H20  1  0.85966879  0.24166048  0.21493636  1
  H  H21  1  0.83903770  0.37230905  0.07739238  1
  H  H22  1  0.43268719  0.88849528  0.54898026  1
  H  H23  1  0.64534411  0.79357764  0.69910915  1
  H  H24  1  0.65980064  0.65062388  0.58417650  1
  H  H25  1  0.34832633  0.79873633  0.31590412  1
  H  H26  1  0.49658476  0.66457589  0.33497238  1
  H  H27  1  0.93243946  0.61162461  0.95104120  1
  H  H28  1  0.14509828  0.70639858  0.80082184  1
  H  H29  1  0.15960997  0.84936537  0.91569933  1
  H  H30  1  0.84840099  0.70140479  0.18419724  1
  H  H31  1  0.99662994  0.83549859  0.16498987  1
  Sr  Sr32  1  0.57820383  0.97777693  0.07150761  1
  Sr  Sr33  1  0.07822690  0.52191075  0.42856890  1
  Pt  Pt34  1  0.00438493  0.02303903  0.50627335  1
  Pt  Pt35  1  0.50443786  0.47692199  0.99380340  1
  Cl  Cl36  1  0.47440536  0.24741324  0.99594817  1
  Cl  Cl37  1  0.23776331  0.96357946  0.16689195  1
  Cl  Cl38  1  0.76767240  0.01666626  0.34117188  1
  Cl  Cl39  1  0.97419163  0.25253071  0.50454982  1
  Cl  Cl40  1  0.23014137  0.02975920  0.68085613  1
  Cl  Cl41  1  0.72894374  0.98804765  0.79178692  1
  Cl  Cl42  1  0.52001139  0.70707698  0.98965498  1
  Cl  Cl43  1  0.73785705  0.53645590  0.33301730  1
  Cl  Cl44  1  0.26759642  0.48359369  0.15874717  1
  Cl  Cl45  1  0.02010021  0.79286726  0.51004068  1
  Cl  Cl46  1  0.22909807  0.51201745  0.70823964  1
  Cl  Cl47  1  0.73026690  0.47003058  0.81931797  1
