# generated using pymatgen
data_BaZnH12C2(I3N)2
_symmetry_space_group_name_H-M   'P 1'
_cell_length_a   8.54920437
_cell_length_b   12.39381243
_cell_length_c   8.38282439
_cell_angle_alpha   88.02469846
_cell_angle_beta   89.99900257
_cell_angle_gamma   90.00688264
_symmetry_Int_Tables_number   1
_chemical_formula_structural   BaZnH12C2(I3N)2
_chemical_formula_sum   'Ba2 Zn2 H24 C4 I12 N4'
_cell_volume   887.69309067
_cell_formula_units_Z   2
loop_
 _symmetry_equiv_pos_site_id
 _symmetry_equiv_pos_as_xyz
  1  'x, y, z'
loop_
 _atom_site_type_symbol
 _atom_site_label
 _atom_site_symmetry_multiplicity
 _atom_site_fract_x
 _atom_site_fract_y
 _atom_site_fract_z
 _atom_site_occupancy
  C  C0  1  0.39637804  0.25043280  0.41496506  1
  C  C1  1  0.89752023  0.24973090  0.08619101  1
  C  C2  1  0.60361864  0.74956864  0.58504899  1
  C  C3  1  0.10248643  0.75026934  0.91382088  1
  N  N4  1  0.53608077  0.24936472  0.51991076  1
  N  N5  1  0.03657381  0.25066126  0.98035543  1
  N  N6  1  0.46391398  0.75063986  0.48010574  1
  N  N7  1  0.96343323  0.74933522  0.01965808  1
  H  H8  1  0.43507868  0.25088520  0.29031216  1
  H  H9  1  0.32842790  0.17717244  0.44124211  1
  H  H10  1  0.32646408  0.32218820  0.43770667  1
  H  H11  1  0.60412360  0.18205793  0.49704693  1
  H  H12  1  0.60441779  0.31795068  0.49702282  1
  H  H13  1  0.50666237  0.24646658  0.64109572  1
  H  H14  1  0.93702856  0.24929868  0.21057848  1
  H  H15  1  0.82732219  0.17799876  0.06396759  1
  H  H16  1  0.82957689  0.32303164  0.06035384  1
  H  H17  1  0.10490590  0.18205411  0.00293180  1
  H  H18  1  0.10487262  0.31794461  0.00276471  1
  H  H19  1  0.00649495  0.25353302  0.85934166  1
  H  H20  1  0.56491917  0.74911808  0.70970455  1
  H  H21  1  0.67353054  0.67781303  0.56230840  1
  H  H22  1  0.67157019  0.82282870  0.55877146  1
  H  H23  1  0.39587341  0.81794455  0.50296949  1
  H  H24  1  0.39557905  0.68205292  0.50299333  1
  H  H25  1  0.49333297  0.75353670  0.35891855  1
  H  H26  1  0.06297695  0.75070405  0.78943491  1
  H  H27  1  0.17268363  0.82200050  0.93604895  1
  H  H28  1  0.17042933  0.67696825  0.93965460  1
  H  H29  1  0.89509737  0.81794148  0.99708506  1
  H  H30  1  0.89513611  0.68205080  0.99724766  1
  H  H31  1  0.99351266  0.74646260  0.14067193  1
  Zn  Zn32  1  0.50000207  0.00001725  0.00000319  1
  Zn  Zn33  1  0.99999554  0.50000717  0.49999493  1
  Ba  Ba34  1  0.00000084  0.00000423  0.50000865  1
  Ba  Ba35  1  0.49999876  0.50001005  0.99999739  1
  I  I36  1  0.47553750  0.23209860  0.93947842  1
  I  I37  1  0.20416971  0.00812918  0.15340426  1
  I  I38  1  0.65480426  0.02142494  0.30290097  1
  I  I39  1  0.97502749  0.26789960  0.56103542  1
  I  I40  1  0.34519972  0.97858369  0.69711505  1
  I  I41  1  0.79583643  0.99187388  0.84661479  1
  I  I42  1  0.52446746  0.76791273  0.06053922  1
  I  I43  1  0.70425205  0.49168539  0.34642881  1
  I  I44  1  0.15498272  0.47867729  0.19721655  1
  I  I45  1  0.02496709  0.73210600  0.43897551  1
  I  I46  1  0.29574329  0.50831596  0.65356970  1
  I  I47  1  0.84501679  0.52132609  0.80278442  1
