# generated using pymatgen
data_SrH10OsC2(N2Cl3)2
_symmetry_space_group_name_H-M   'P 1'
_cell_length_a   7.61457228
_cell_length_b   10.43840184
_cell_length_c   7.59998986
_cell_angle_alpha   90.15240872
_cell_angle_beta   89.99957361
_cell_angle_gamma   89.99759452
_symmetry_Int_Tables_number   1
_chemical_formula_structural   SrH10OsC2(N2Cl3)2
_chemical_formula_sum   'Sr2 H20 Os2 C4 N8 Cl12'
_cell_volume   604.07519239
_cell_formula_units_Z   2
loop_
 _symmetry_equiv_pos_site_id
 _symmetry_equiv_pos_as_xyz
  1  'x, y, z'
loop_
 _atom_site_type_symbol
 _atom_site_label
 _atom_site_symmetry_multiplicity
 _atom_site_fract_x
 _atom_site_fract_y
 _atom_site_fract_z
 _atom_site_occupancy
  C  C0  1  0.49528887  0.29399812  0.49668923  1
  C  C1  1  0.99531486  0.20598744  0.00333167  1
  C  C2  1  0.50521214  0.79408569  0.50372764  1
  C  C3  1  0.00516192  0.70592116  0.99626173  1
  N  N4  1  0.60504242  0.23667546  0.60263250  1
  N  N5  1  0.38907417  0.23649439  0.38708627  1
  N  N6  1  0.10511852  0.26332455  0.89740381  1
  N  N7  1  0.88913104  0.26350199  0.11290825  1
  N  N8  1  0.61150336  0.73660422  0.61298849  1
  N  N9  1  0.39436580  0.73673977  0.39868564  1
  N  N10  1  0.11146107  0.76340609  0.88701650  1
  N  N11  1  0.89429265  0.76325905  0.10128927  1
  H  H12  1  0.49184718  0.39813473  0.50017900  1
  H  H13  1  0.67682316  0.29117250  0.68808656  1
  H  H14  1  0.62969268  0.14061389  0.59990690  1
  H  H15  1  0.31411977  0.29163880  0.30558144  1
  H  H16  1  0.36905390  0.13981257  0.38367858  1
  H  H17  1  0.99186247  0.10186625  0.99979507  1
  H  H18  1  0.17688980  0.20882091  0.81194059  1
  H  H19  1  0.12978895  0.35937195  0.90016091  1
  H  H20  1  0.81412960  0.20835721  0.19440861  1
  H  H21  1  0.86911043  0.36018747  0.11635133  1
  H  H22  1  0.50976416  0.89815992  0.49976808  1
  H  H23  1  0.69738922  0.79150239  0.68368322  1
  H  H24  1  0.60901500  0.64064493  0.63844317  1
  H  H25  1  0.31279707  0.79144214  0.32320970  1
  H  H26  1  0.39048844  0.63996882  0.37988873  1
  H  H27  1  0.00972771  0.60184567  0.00021493  1
  H  H28  1  0.19736921  0.70851694  0.81633198  1
  H  H29  1  0.10896697  0.85936914  0.86157412  1
  H  H30  1  0.81272104  0.70855000  0.17674988  1
  H  H31  1  0.89039613  0.86003029  0.12009393  1
  Sr  Sr32  1  0.49802657  0.99999689  0.99700366  1
  Sr  Sr33  1  0.99803371  0.50001453  0.50301012  1
  Os  Os34  1  0.00003002  0.99999573  0.49809999  1
  Os  Os35  1  0.50002447  0.50001310  0.00190325  1
  Cl  Cl36  1  0.49926171  0.26874609  0.99723926  1
  Cl  Cl37  1  0.19673425  0.98881382  0.24433756  1
  Cl  Cl38  1  0.74650024  0.00960770  0.30063822  1
  Cl  Cl39  1  0.99922580  0.23126515  0.50280680  1
  Cl  Cl40  1  0.25392862  0.01140686  0.69408512  1
  Cl  Cl41  1  0.80368285  0.99003272  0.75241648  1
  Cl  Cl42  1  0.50039233  0.73130022  0.00473984  1
  Cl  Cl43  1  0.69672928  0.51118562  0.25566422  1
  Cl  Cl44  1  0.24648906  0.49040661  0.19936138  1
  Cl  Cl45  1  0.00043783  0.76870980  0.49522913  1
  Cl  Cl46  1  0.30368200  0.50997462  0.74758538  1
  Cl  Cl47  1  0.75392088  0.48858908  0.80591664  1
