# generated using pymatgen
data_BaSrH10C2(N2Cl3)2
_symmetry_space_group_name_H-M   'P 1'
_cell_length_a   8.08629211
_cell_length_b   11.50886407
_cell_length_c   8.11280933
_cell_angle_alpha   90.26326208
_cell_angle_beta   89.99859436
_cell_angle_gamma   89.99365085
_symmetry_Int_Tables_number   1
_chemical_formula_structural   BaSrH10C2(N2Cl3)2
_chemical_formula_sum   'Ba2 Sr2 H20 C4 N8 Cl12'
_cell_volume   755.00281013
_cell_formula_units_Z   2
loop_
 _symmetry_equiv_pos_site_id
 _symmetry_equiv_pos_as_xyz
  1  'x, y, z'
loop_
 _atom_site_type_symbol
 _atom_site_label
 _atom_site_symmetry_multiplicity
 _atom_site_fract_x
 _atom_site_fract_y
 _atom_site_fract_z
 _atom_site_occupancy
  C  C0  1  0.49463395  0.30731581  0.50884572  1
  C  C1  1  0.99458122  0.19276276  0.99105623  1
  C  C2  1  0.50503336  0.80718421  0.48898364  1
  C  C3  1  0.00493107  0.69273921  0.01100422  1
  N  N4  1  0.61556609  0.25889158  0.59148432  1
  N  N5  1  0.41658652  0.25850188  0.38474951  1
  N  N6  1  0.11557321  0.24117972  0.90853645  1
  N  N7  1  0.91654449  0.24152267  0.11523265  1
  N  N8  1  0.58094871  0.75870676  0.61377054  1
  N  N9  1  0.38429871  0.75888230  0.40488884  1
  N  N10  1  0.08092217  0.74132303  0.88634624  1
  N  N11  1  0.88421261  0.74101146  0.09518793  1
  H  H12  1  0.45518111  0.39407296  0.54739717  1
  H  H13  1  0.67487430  0.30455892  0.68241563  1
  H  H14  1  0.66001792  0.17910431  0.55980845  1
  H  H15  1  0.32395647  0.30336151  0.32712073  1
  H  H16  1  0.45282883  0.18007886  0.33758597  1
  H  H17  1  0.95504035  0.10606276  0.95235705  1
  H  H18  1  0.17485869  0.19555255  0.81752865  1
  H  H19  1  0.16013434  0.32089573  0.94038766  1
  H  H20  1  0.82387645  0.19666967  0.17277879  1
  H  H21  1  0.95284651  0.31988683  0.16252505  1
  H  H22  1  0.54569397  0.89346787  0.45060371  1
  H  H23  1  0.66889758  0.80482137  0.67720882  1
  H  H24  1  0.54539515  0.67953491  0.65738302  1
  H  H25  1  0.33178472  0.80287591  0.30894594  1
  H  H26  1  0.33344766  0.68178208  0.43994239  1
  H  H27  1  0.04550807  0.60639301  0.04919303  1
  H  H28  1  0.16886459  0.69522321  0.82283437  1
  H  H29  1  0.04546864  0.82056608  0.84291739  1
  H  H30  1  0.83163709  0.69692687  0.19100744  1
  H  H31  1  0.83343935  0.81818457  0.06031534  1
  Sr  Sr32  1  0.49503411  0.00235571  0.97694049  1
  Sr  Sr33  1  0.99510910  0.49764880  0.52304652  1
  Ba  Ba34  1  0.00985777  0.99782821  0.47480098  1
  Ba  Ba35  1  0.50986507  0.50216513  0.02517690  1
  Cl  Cl36  1  0.50719104  0.24565613  0.98768207  1
  Cl  Cl37  1  0.20498560  0.97490463  0.16810209  1
  Cl  Cl38  1  0.68433691  0.03892668  0.28460843  1
  Cl  Cl39  1  0.00719899  0.25434492  0.51228873  1
  Cl  Cl40  1  0.31074865  0.02744164  0.68506541  1
  Cl  Cl41  1  0.80309989  0.96000488  0.79706725  1
  Cl  Cl42  1  0.49579986  0.75945828  0.00790987  1
  Cl  Cl43  1  0.70513789  0.52509374  0.33176999  1
  Cl  Cl44  1  0.18438565  0.46105486  0.21536678  1
  Cl  Cl45  1  0.99585589  0.74054232  0.49215118  1
  Cl  Cl46  1  0.30312183  0.54003008  0.70294332  1
  Cl  Cl47  1  0.81070720  0.47256560  0.81484186  1
