# generated using pymatgen
data_SrSnH10C2(N2Cl3)2
_symmetry_space_group_name_H-M   'P 1'
_cell_length_a   7.98656198
_cell_length_b   11.06426336
_cell_length_c   7.97531400
_cell_angle_alpha   90.07048716
_cell_angle_beta   90.00003839
_cell_angle_gamma   90.00106478
_symmetry_Int_Tables_number   1
_chemical_formula_structural   SrSnH10C2(N2Cl3)2
_chemical_formula_sum   'Sr2 Sn2 H20 C4 N8 Cl12'
_cell_volume   704.74147871
_cell_formula_units_Z   2
loop_
 _symmetry_equiv_pos_site_id
 _symmetry_equiv_pos_as_xyz
  1  'x, y, z'
loop_
 _atom_site_type_symbol
 _atom_site_label
 _atom_site_symmetry_multiplicity
 _atom_site_fract_x
 _atom_site_fract_y
 _atom_site_fract_z
 _atom_site_occupancy
  C  C0  1  0.49332653  0.29193144  0.49628211  1
  C  C1  1  0.99331263  0.20818335  0.00369498  1
  C  C2  1  0.50707959  0.79180652  0.50340279  1
  C  C3  1  0.00699329  0.70807246  0.99659360  1
  N  N4  1  0.59976254  0.23889822  0.59737549  1
  N  N5  1  0.39218582  0.23727170  0.39143824  1
  N  N6  1  0.09982239  0.26122015  0.90262439  1
  N  N7  1  0.89217986  0.26282994  0.10859179  1
  N  N8  1  0.60782114  0.73714001  0.60848548  1
  N  N9  1  0.40069117  0.73879167  0.40211418  1
  N  N10  1  0.10776899  0.76274832  0.89153549  1
  N  N11  1  0.90060081  0.76106192  0.09790657  1
  H  H12  1  0.48826524  0.39031749  0.50001713  1
  H  H13  1  0.67137671  0.29100784  0.67523469  1
  H  H14  1  0.61633683  0.14756846  0.60179096  1
  H  H15  1  0.31578082  0.28892288  0.31762860  1
  H  H16  1  0.38406033  0.14557848  0.37984492  1
  H  H17  1  0.98818041  0.10980986  0.99987570  1
  H  H18  1  0.17137588  0.20915098  0.82477654  1
  H  H19  1  0.11644685  0.35256583  0.89831910  1
  H  H20  1  0.81576745  0.21119158  0.18233362  1
  H  H21  1  0.88413067  0.35453847  0.12024338  1
  H  H22  1  0.51255276  0.89017633  0.49962311  1
  H  H23  1  0.68621703  0.78870890  0.68048401  1
  H  H24  1  0.61152694  0.64566126  0.62421354  1
  H  H25  1  0.32692174  0.79100627  0.32660095  1
  H  H26  1  0.38763367  0.64729017  0.39375889  1
  H  H27  1  0.01243637  0.60970211  0.00031940  1
  H  H28  1  0.18615485  0.71120306  0.81954075  1
  H  H29  1  0.11148234  0.85424227  0.87587384  1
  H  H30  1  0.82683266  0.70883803  0.17337186  1
  H  H31  1  0.88758251  0.85257454  0.10629483  1
  Sr  Sr32  1  0.49919000  0.99995434  0.99603795  1
  Sr  Sr33  1  0.99921291  0.50005441  0.50396712  1
  Sn  Sn34  1  0.00062502  0.00003952  0.49648283  1
  Sn  Sn35  1  0.50062096  0.49996759  0.00351184  1
  Cl  Cl36  1  0.49789853  0.25248448  0.99405276  1
  Cl  Cl37  1  0.21525787  0.98323495  0.21503183  1
  Cl  Cl38  1  0.71448440  0.01958759  0.28321349  1
  Cl  Cl39  1  0.99789086  0.24753037  0.50596269  1
  Cl  Cl40  1  0.28138027  0.01665425  0.71116000  1
  Cl  Cl41  1  0.78719178  0.98050429  0.78196688  1
  Cl  Cl42  1  0.50262493  0.74751234  0.00530789  1
  Cl  Cl43  1  0.71536277  0.51677242  0.28488605  1
  Cl  Cl44  1  0.21453252  0.48044884  0.21681996  1
  Cl  Cl45  1  0.00270339  0.75248990  0.49468331  1
  Cl  Cl46  1  0.28715279  0.51946159  0.71809754  1
  Cl  Cl47  1  0.78128349  0.48335557  0.78873167  1
