# generated using pymatgen
data_SrCdH10C2(N2Cl3)2
_symmetry_space_group_name_H-M   'P 1'
_cell_length_a   7.85535239
_cell_length_b   10.69203167
_cell_length_c   7.84027898
_cell_angle_alpha   90.10899648
_cell_angle_beta   90.00326411
_cell_angle_gamma   89.99829142
_symmetry_Int_Tables_number   1
_chemical_formula_structural   SrCdH10C2(N2Cl3)2
_chemical_formula_sum   'Sr2 Cd2 H20 C4 N8 Cl12'
_cell_volume   658.50130285
_cell_formula_units_Z   2
loop_
 _symmetry_equiv_pos_site_id
 _symmetry_equiv_pos_as_xyz
  1  'x, y, z'
loop_
 _atom_site_type_symbol
 _atom_site_label
 _atom_site_symmetry_multiplicity
 _atom_site_fract_x
 _atom_site_fract_y
 _atom_site_fract_z
 _atom_site_occupancy
  C  C0  1  0.49488772  0.29277295  0.49663729  1
  C  C1  1  0.99490734  0.20722741  0.00338818  1
  C  C2  1  0.50532835  0.79279079  0.50369084  1
  C  C3  1  0.00526545  0.70721800  0.99630957  1
  N  N4  1  0.60196394  0.23719314  0.59960768  1
  N  N5  1  0.39137477  0.23714105  0.39003360  1
  N  N6  1  0.10203498  0.26280045  0.90042675  1
  N  N7  1  0.89140728  0.26286267  0.10998088  1
  N  N8  1  0.60870052  0.73713754  0.61022472  1
  N  N9  1  0.39761879  0.73722488  0.40110969  1
  N  N10  1  0.10867161  0.76287277  0.88976693  1
  N  N11  1  0.89756657  0.76276154  0.09884505  1
  H  H12  1  0.49139402  0.39456299  0.50030509  1
  H  H13  1  0.67366728  0.29100258  0.68005377  1
  H  H14  1  0.62126340  0.14287861  0.60174080  1
  H  H15  1  0.31679297  0.29152005  0.31322863  1
  H  H16  1  0.37744507  0.14242933  0.38091575  1
  H  H17  1  0.99139918  0.10543090  0.99967914  1
  H  H18  1  0.17372876  0.20898811  0.81997654  1
  H  H19  1  0.12134713  0.35710589  0.89833537  1
  H  H20  1  0.81677044  0.20847953  0.18678572  1
  H  H21  1  0.87748150  0.35758298  0.11912657  1
  H  H22  1  0.50961869  0.89454838  0.49979500  1
  H  H23  1  0.68955038  0.79142171  0.68090156  1
  H  H24  1  0.61165522  0.64282010  0.62988906  1
  H  H25  1  0.32066763  0.79112848  0.32609624  1
  H  H26  1  0.38846260  0.64252654  0.38830659  1
  H  H27  1  0.00959041  0.60545475  0.00017634  1
  H  H28  1  0.18953833  0.70859727  0.81910508  1
  H  H29  1  0.11161317  0.85719340  0.87012395  1
  H  H30  1  0.82059873  0.70886243  0.17385760  1
  H  H31  1  0.88837422  0.85746717  0.11167204  1
  Sr  Sr32  1  0.49932945  0.99998452  0.99695111  1
  Sr  Sr33  1  0.99933220  0.50002709  0.50305441  1
  Cd  Cd34  1  0.00093758  0.00002061  0.49703799  1
  Cd  Cd35  1  0.50093581  0.49998983  0.00295796  1
  Cl  Cl36  1  0.49829236  0.26315463  0.99611132  1
  Cl  Cl37  1  0.21281145  0.98541206  0.22513634  1
  Cl  Cl38  1  0.72595943  0.01458993  0.28621246  1
  Cl  Cl39  1  0.99824604  0.23685769  0.50392843  1
  Cl  Cl40  1  0.27270944  0.01485875  0.71000447  1
  Cl  Cl41  1  0.78912932  0.98508770  0.77218970  1
  Cl  Cl42  1  0.50051443  0.73688219  0.00497527  1
  Cl  Cl43  1  0.71279896  0.51459289  0.27487193  1
  Cl  Cl44  1  0.22594931  0.48541997  0.21377742  1
  Cl  Cl45  1  0.00056606  0.76312564  0.49499762  1
  Cl  Cl46  1  0.28912688  0.51491833  0.72781416  1
  Cl  Cl47  1  0.77269415  0.48513675  0.78999212  1
