# generated using pymatgen
data_SrH10RuC2(N2Cl3)2
_symmetry_space_group_name_H-M   'P 1'
_cell_length_a   7.63206848
_cell_length_b   10.46612068
_cell_length_c   7.61692539
_cell_angle_alpha   90.16668037
_cell_angle_beta   90.00043417
_cell_angle_gamma   89.99780408
_symmetry_Int_Tables_number   1
_chemical_formula_structural   SrH10RuC2(N2Cl3)2
_chemical_formula_sum   'Sr2 H20 Ru2 C4 N8 Cl12'
_cell_volume   608.42333255
_cell_formula_units_Z   2
loop_
 _symmetry_equiv_pos_site_id
 _symmetry_equiv_pos_as_xyz
  1  'x, y, z'
loop_
 _atom_site_type_symbol
 _atom_site_label
 _atom_site_symmetry_multiplicity
 _atom_site_fract_x
 _atom_site_fract_y
 _atom_site_fract_z
 _atom_site_occupancy
  C  C0  1  0.49523046  0.29388161  0.49670477  1
  C  C1  1  0.99526807  0.20611530  0.00330086  1
  C  C2  1  0.50524237  0.79394184  0.50372292  1
  C  C3  1  0.00518708  0.70606351  0.99626787  1
  N  N4  1  0.60454617  0.23670702  0.60262372  1
  N  N5  1  0.38945778  0.23656591  0.38715099  1
  N  N6  1  0.10461116  0.26328415  0.89741713  1
  N  N7  1  0.88949492  0.26343378  0.11285759  1
  N  N8  1  0.61152134  0.73666676  0.61251518  1
  N  N9  1  0.39443612  0.73676880  0.39907756  1
  N  N10  1  0.11147140  0.76334414  0.88749476  1
  N  N11  1  0.89435802  0.76323064  0.10089758  1
  H  H12  1  0.49181900  0.39771278  0.50023379  1
  H  H13  1  0.67588711  0.29112137  0.68804486  1
  H  H14  1  0.62902746  0.14090085  0.60004191  1
  H  H15  1  0.31499049  0.29163607  0.30562035  1
  H  H16  1  0.36955296  0.14013737  0.38349971  1
  H  H17  1  0.99183091  0.10228512  0.99973970  1
  H  H18  1  0.17594621  0.20886978  0.81198558  1
  H  H19  1  0.12911714  0.35908639  0.90002812  1
  H  H20  1  0.81500564  0.20836619  0.19435949  1
  H  H21  1  0.86960832  0.35986303  0.11652639  1
  H  H22  1  0.50975868  0.89773152  0.49979735  1
  H  H23  1  0.69738705  0.79147664  0.68275686  1
  H  H24  1  0.60931853  0.64093115  0.63771139  1
  H  H25  1  0.31287405  0.79138343  0.32412084  1
  H  H26  1  0.39045112  0.64025818  0.38034083  1
  H  H27  1  0.00971525  0.60227410  0.00018691  1
  H  H28  1  0.19735729  0.70854110  0.81726543  1
  H  H29  1  0.10926520  0.85908048  0.86231417  1
  H  H30  1  0.81279452  0.70861028  0.17583833  1
  H  H31  1  0.89035795  0.85974027  0.11964473  1
  Sr  Sr32  1  0.49808695  0.99999450  0.99702277  1
  Sr  Sr33  1  0.99809309  0.50001628  0.50298849  1
  Ru  Ru34  1  0.00007121  0.99999209  0.49808529  1
  Ru  Ru35  1  0.50006495  0.50001581  0.00191517  1
  Cl  Cl36  1  0.49920399  0.26870155  0.99724668  1
  Cl  Cl37  1  0.19811491  0.98888332  0.24364884  1
  Cl  Cl38  1  0.74579956  0.00963574  0.29929370  1
  Cl  Cl39  1  0.99916327  0.23130826  0.50279193  1
  Cl  Cl40  1  0.25451537  0.01134831  0.69547484  1
  Cl  Cl41  1  0.80233547  0.98999067  0.75299618  1
  Cl  Cl42  1  0.50044584  0.73134376  0.00467091  1
  Cl  Cl43  1  0.69810993  0.51111677  0.25635450  1
  Cl  Cl44  1  0.24579078  0.49038141  0.20070117  1
  Cl  Cl45  1  0.00049814  0.76866508  0.49529871  1
  Cl  Cl46  1  0.30233265  0.51001765  0.74700188  1
  Cl  Cl47  1  0.75450346  0.48864221  0.80452603  1
