# generated using pymatgen
data_YTlH10C2(N2Cl3)2
_symmetry_space_group_name_H-M   'P 1'
_cell_length_a   8.00679424
_cell_length_b   11.14890342
_cell_length_c   7.99021627
_cell_angle_alpha   89.84429038
_cell_angle_beta   90.00021316
_cell_angle_gamma   90.00045185
_symmetry_Int_Tables_number   1
_chemical_formula_structural   YTlH10C2(N2Cl3)2
_chemical_formula_sum   'Y2 Tl2 H20 C4 N8 Cl12'
_cell_volume   713.25980747
_cell_formula_units_Z   2
loop_
 _symmetry_equiv_pos_site_id
 _symmetry_equiv_pos_as_xyz
  1  'x, y, z'
loop_
 _atom_site_type_symbol
 _atom_site_label
 _atom_site_symmetry_multiplicity
 _atom_site_fract_x
 _atom_site_fract_y
 _atom_site_fract_z
 _atom_site_occupancy
  C  C0  1  0.49405871  0.29218008  0.49611308  1
  C  C1  1  0.99409724  0.20779093  0.00390111  1
  C  C2  1  0.50613231  0.79224629  0.50340119  1
  C  C3  1  0.00607702  0.70775742  0.99657840  1
  N  N4  1  0.60067520  0.23862931  0.59595345  1
  N  N5  1  0.39172432  0.23894641  0.39201860  1
  N  N6  1  0.10075675  0.26138047  0.90408684  1
  N  N7  1  0.89175061  0.26106785  0.10799552  1
  N  N8  1  0.60695561  0.73882479  0.60928553  1
  N  N9  1  0.40136561  0.73873800  0.40192213  1
  N  N10  1  0.10690372  0.76118612  0.89072487  1
  N  N11  1  0.90126786  0.76125789  0.09804782  1
  H  H12  1  0.48986311  0.38987855  0.50031610  1
  H  H13  1  0.67512711  0.28954165  0.67133616  1
  H  H14  1  0.61190798  0.14770948  0.60469026  1
  H  H15  1  0.31309639  0.29065413  0.32150544  1
  H  H16  1  0.38697873  0.14819937  0.37574497  1
  H  H17  1  0.98988230  0.11012509  0.99967421  1
  H  H18  1  0.17520374  0.21045286  0.82872394  1
  H  H19  1  0.11201349  0.35227912  0.89539511  1
  H  H20  1  0.81310124  0.20933537  0.17847519  1
  H  H21  1  0.88702877  0.35177909  0.12427995  1
  H  H22  1  0.50998478  0.88991964  0.49910085  1
  H  H23  1  0.68176352  0.79047780  0.68350359  1
  H  H24  1  0.61660682  0.64792570  0.62108507  1
  H  H25  1  0.32953694  0.78980931  0.32378037  1
  H  H26  1  0.38514146  0.64806552  0.39868830  1
  H  H27  1  0.00993692  0.61008476  0.00088172  1
  H  H28  1  0.18174295  0.70954151  0.81652083  1
  H  H29  1  0.11655222  0.85208703  0.87893124  1
  H  H30  1  0.82944046  0.71018014  0.17616609  1
  H  H31  1  0.88503348  0.85192954  0.10127167  1
  Y  Y32  1  0.49919002  0.99999077  0.99774968  1
  Y  Y33  1  0.99919047  0.50002188  0.50225738  1
  Tl  Tl34  1  0.00000627  0.00005785  0.49668926  1
  Tl  Tl35  1  0.50000406  0.49995604  0.00331647  1
  Cl  Cl36  1  0.49918507  0.23145176  0.99329011  1
  Cl  Cl37  1  0.23362200  0.98480083  0.19335388  1
  Cl  Cl38  1  0.69180608  0.01874482  0.26669698  1
  Cl  Cl39  1  0.99914752  0.26856148  0.50674777  1
  Cl  Cl40  1  0.30452007  0.01425291  0.73122642  1
  Cl  Cl41  1  0.76844680  0.98232249  0.80577297  1
  Cl  Cl42  1  0.50240423  0.76858364  0.00558300  1
  Cl  Cl43  1  0.73360513  0.51520713  0.30666239  1
  Cl  Cl44  1  0.19178198  0.48124339  0.23328904  1
  Cl  Cl45  1  0.00245639  0.73142808  0.49436491  1
  Cl  Cl46  1  0.26844514  0.51768818  0.69423527  1
  Cl  Cl47  1  0.80450073  0.48577054  0.76876962  1
