# generated using pymatgen
data_YH10AuC2(N2Cl3)2
_symmetry_space_group_name_H-M   'P 1'
_cell_length_a   8.07775229
_cell_length_b   9.94595269
_cell_length_c   8.31210343
_cell_angle_alpha   89.84792004
_cell_angle_beta   90.00013473
_cell_angle_gamma   89.99953527
_symmetry_Int_Tables_number   1
_chemical_formula_structural   YH10AuC2(N2Cl3)2
_chemical_formula_sum   'Y2 H20 Au2 C4 N8 Cl12'
_cell_volume   667.79986762
_cell_formula_units_Z   2
loop_
 _symmetry_equiv_pos_site_id
 _symmetry_equiv_pos_as_xyz
  1  'x, y, z'
loop_
 _atom_site_type_symbol
 _atom_site_label
 _atom_site_symmetry_multiplicity
 _atom_site_fract_x
 _atom_site_fract_y
 _atom_site_fract_z
 _atom_site_occupancy
  C  C0  1  0.49672221  0.29231307  0.49743896  1
  C  C1  1  0.99666000  0.20770387  0.00258482  1
  C  C2  1  0.50400283  0.79457745  0.50231789  1
  C  C3  1  0.00401320  0.70540345  0.99767081  1
  N  N4  1  0.59771405  0.23465887  0.59979616  1
  N  N5  1  0.39892989  0.23200925  0.39471470  1
  N  N6  1  0.09768880  0.26535378  0.90024404  1
  N  N7  1  0.89888291  0.26803500  0.10530519  1
  N  N8  1  0.59483338  0.73366647  0.61076850  1
  N  N9  1  0.40817467  0.73719677  0.39552590  1
  N  N10  1  0.09483835  0.76630942  0.88921916  1
  N  N11  1  0.90816085  0.76277272  0.10444540  1
  H  H12  1  0.49342115  0.40170460  0.49781207  1
  H  H13  1  0.66860393  0.29460142  0.67249802  1
  H  H14  1  0.60985165  0.13318440  0.61329144  1
  H  H15  1  0.32505135  0.29047945  0.32277096  1
  H  H16  1  0.39174736  0.13034854  0.38049394  1
  H  H17  1  0.99330877  0.09832367  0.00218777  1
  H  H18  1  0.16855981  0.20539796  0.82754031  1
  H  H19  1  0.10986956  0.36681796  0.88677543  1
  H  H20  1  0.82497719  0.20957079  0.17724005  1
  H  H21  1  0.89173861  0.36969176  0.11954977  1
  H  H22  1  0.50910015  0.90390435  0.50059235  1
  H  H23  1  0.66524481  0.79131240  0.68652896  1
  H  H24  1  0.60160855  0.63186468  0.62428599  1
  H  H25  1  0.34176233  0.79708138  0.31841300  1
  H  H26  1  0.39277990  0.63575983  0.38537405  1
  H  H27  1  0.00914291  0.59607273  0.99941559  1
  H  H28  1  0.16526888  0.70867032  0.81347307  1
  H  H29  1  0.10158318  0.86811678  0.87568503  1
  H  H30  1  0.84175875  0.70288980  0.18156029  1
  H  H31  1  0.89273524  0.86421173  0.11457744  1
  Y  Y32  1  0.49936929  0.99781670  0.99824298  1
  Y  Y33  1  0.99938981  0.50219413  0.50176680  1
  Au  Au34  1  0.00040862  0.00217386  0.49884636  1
  Au  Au35  1  0.50040494  0.49783749  0.00115225  1
  Cl  Cl36  1  0.49898885  0.26459549  0.99762989  1
  Cl  Cl37  1  0.24123251  0.98150177  0.18666606  1
  Cl  Cl38  1  0.69198458  0.01508867  0.25108069  1
  Cl  Cl39  1  0.99901035  0.23541658  0.50237947  1
  Cl  Cl40  1  0.30892513  0.01636912  0.74444380  1
  Cl  Cl41  1  0.75857692  0.98191996  0.81039098  1
  Cl  Cl42  1  0.50111401  0.73126653  0.00302419  1
  Cl  Cl43  1  0.74124284  0.51851369  0.31334327  1
  Cl  Cl44  1  0.19198257  0.48491090  0.24891136  1
  Cl  Cl45  1  0.00112294  0.76874314  0.49696381  1
  Cl  Cl46  1  0.25859737  0.51806589  0.68960934  1
  Cl  Cl47  1  0.80893337  0.48364437  0.75555644  1
