# generated using pymatgen
data_YReH10C2(N2Cl3)2
_symmetry_space_group_name_H-M   'P 1'
_cell_length_a   7.45944756
_cell_length_b   10.16404127
_cell_length_c   7.45040366
_cell_angle_alpha   90.00432261
_cell_angle_beta   90.00112426
_cell_angle_gamma   89.99944335
_symmetry_Int_Tables_number   1
_chemical_formula_structural   YReH10C2(N2Cl3)2
_chemical_formula_sum   'Y2 Re2 H20 C4 N8 Cl12'
_cell_volume   564.87569239
_cell_formula_units_Z   2
loop_
 _symmetry_equiv_pos_site_id
 _symmetry_equiv_pos_as_xyz
  1  'x, y, z'
loop_
 _atom_site_type_symbol
 _atom_site_label
 _atom_site_symmetry_multiplicity
 _atom_site_fract_x
 _atom_site_fract_y
 _atom_site_fract_z
 _atom_site_occupancy
  C  C0  1  0.49534372  0.29426971  0.49650664  1
  C  C1  1  0.99538662  0.20573931  0.00349195  1
  C  C2  1  0.50538108  0.79432234  0.50357185  1
  C  C3  1  0.00532816  0.70567875  0.99643328  1
  N  N4  1  0.60777635  0.23569157  0.60408505  1
  N  N5  1  0.38693376  0.23364348  0.38713396  1
  N  N6  1  0.10783709  0.26431261  0.89594477  1
  N  N7  1  0.88698214  0.26635188  0.11286572  1
  N  N8  1  0.61196026  0.73371795  0.61478046  1
  N  N9  1  0.39393969  0.73574218  0.39499964  1
  N  N10  1  0.11192470  0.76628720  0.88522331  1
  N  N11  1  0.89388518  0.76425061  0.10497323  1
  H  H12  1  0.49155634  0.40099882  0.49826139  1
  H  H13  1  0.68437169  0.29176446  0.68776518  1
  H  H14  1  0.62994886  0.13683234  0.60354103  1
  H  H15  1  0.30651859  0.28881289  0.30602028  1
  H  H16  1  0.37013733  0.13422392  0.38479971  1
  H  H17  1  0.99157817  0.09900553  0.00170576  1
  H  H18  1  0.18443382  0.20824760  0.81226798  1
  H  H19  1  0.13004844  0.36316978  0.89653050  1
  H  H20  1  0.80655080  0.21118620  0.19395623  1
  H  H21  1  0.87020289  0.36577681  0.11523037  1
  H  H22  1  0.51010953  0.90102273  0.50089203  1
  H  H23  1  0.69644278  0.78879314  0.69177184  1
  H  H24  1  0.60883515  0.63487753  0.63718115  1
  H  H25  1  0.31325647  0.79190613  0.31538070  1
  H  H26  1  0.38877076  0.63637338  0.37853744  1
  H  H27  1  0.01007415  0.59897829  0.99910394  1
  H  H28  1  0.19641435  0.71122006  0.80825356  1
  H  H29  1  0.10879214  0.86512434  0.86283436  1
  H  H30  1  0.81318923  0.70808561  0.18457850  1
  H  H31  1  0.88868502  0.86361985  0.12143360  1
  Y  Y32  1  0.49869149  0.00001026  0.99779515  1
  Y  Y33  1  0.99869817  0.49999668  0.50222189  1
  Re  Re34  1  -0.00008640  0.00001261  0.49822271  1
  Re  Re35  1  0.49991174  0.49999262  0.00178127  1
  Cl  Cl36  1  0.49922559  0.25741046  0.99791339  1
  Cl  Cl37  1  0.20810490  0.98540017  0.23035650  1
  Cl  Cl38  1  0.73299928  0.01212909  0.28821304  1
  Cl  Cl39  1  0.99919148  0.24259657  0.50212284  1
  Cl  Cl40  1  0.26819121  0.01460225  0.70549469  1
  Cl  Cl41  1  0.79095005  0.98782518  0.76582054  1
  Cl  Cl42  1  0.50063766  0.74261895  0.00314043  1
  Cl  Cl43  1  0.70810964  0.51459017  0.26964923  1
  Cl  Cl44  1  0.23299127  0.48788176  0.21178858  1
  Cl  Cl45  1  0.00066801  0.75738744  0.49683445  1
  Cl  Cl46  1  0.29095552  0.51219139  0.73418092  1
  Cl  Cl47  1  0.76818447  0.48539040  0.79451373  1
