# generated using pymatgen
data_BaYH10C2(N2Cl3)2
_symmetry_space_group_name_H-M   'P 1'
_cell_length_a   7.95043492
_cell_length_b   11.14642948
_cell_length_c   8.06469217
_cell_angle_alpha   95.81135458
_cell_angle_beta   90.22389400
_cell_angle_gamma   91.28903678
_symmetry_Int_Tables_number   1
_chemical_formula_structural   BaYH10C2(N2Cl3)2
_chemical_formula_sum   'Ba2 Y2 H20 C4 N8 Cl12'
_cell_volume   710.81796422
_cell_formula_units_Z   2
loop_
 _symmetry_equiv_pos_site_id
 _symmetry_equiv_pos_as_xyz
  1  'x, y, z'
loop_
 _atom_site_type_symbol
 _atom_site_label
 _atom_site_symmetry_multiplicity
 _atom_site_fract_x
 _atom_site_fract_y
 _atom_site_fract_z
 _atom_site_occupancy
  C  C0  1  0.49904722  0.29514840  0.51032460  1
  C  C1  1  0.00287163  0.20216792  0.99218084  1
  C  C2  1  0.54227761  0.77848803  0.40504561  1
  C  C3  1  0.02259021  0.73308640  0.09506544  1
  N  N4  1  0.61247555  0.25092459  0.60374262  1
  N  N5  1  0.40770348  0.23211721  0.39571546  1
  N  N6  1  0.11690478  0.24355669  0.89481361  1
  N  N7  1  0.91408023  0.26827416  0.10148026  1
  N  N8  1  0.54710351  0.71005569  0.54738117  1
  N  N9  1  0.40088106  0.73078162  0.29419275  1
  N  N10  1  0.06508990  0.73076367  0.93462273  1
  N  N11  1  0.91379538  0.80295723  0.17406535  1
  H  H12  1  0.47763433  0.39180576  0.53061497  1
  H  H13  1  0.67838736  0.30833188  0.68883002  1
  H  H14  1  0.64026957  0.16156290  0.59661760  1
  H  H15  1  0.32315823  0.27566354  0.32882373  1
  H  H16  1  0.42355113  0.14224739  0.36364456  1
  H  H17  1  0.97875982  0.10513292  0.98053656  1
  H  H18  1  0.17954984  0.18428911  0.81323161  1
  H  H19  1  0.14726399  0.33318908  0.89370736  1
  H  H20  1  0.82758634  0.22669618  0.17117158  1
  H  H21  1  0.93214498  0.35914001  0.12556533  1
  H  H22  1  0.52436680  0.87449374  0.44773154  1
  H  H23  1  0.56856859  0.76316789  0.65617654  1
  H  H24  1  0.63478266  0.64448965  0.53631730  1
  H  H25  1  0.36179789  0.79668904  0.22343995  1
  H  H26  1  0.30401797  0.71129928  0.37182027  1
  H  H27  1  0.09029809  0.66979673  0.16546940  1
  H  H28  1  0.14021509  0.66568456  0.87910081  1
  H  H29  1  0.00421072  0.78169243  0.85652994  1
  H  H30  1  0.65881060  0.77293840  0.33034595  1
  H  H31  1  0.85240560  0.85334669  0.09317148  1
  Y  Y32  1  0.50698207  0.02300305  0.95603074  1
  Y  Y33  1  0.01502025  0.47769705  0.54181053  1
  Ba  Ba34  1  0.99695392  0.96230333  0.44188821  1
  Ba  Ba35  1  0.51769169  0.54292630  0.06581782  1
  Cl  Cl36  1  0.50843665  0.25863342  0.99274191  1
  Cl  Cl37  1  0.24933079  0.00560672  0.15717700  1
  Cl  Cl38  1  0.69905967  0.05045647  0.23253127  1
  Cl  Cl39  1  0.00965375  0.24274569  0.50738602  1
  Cl  Cl40  1  0.30642110  0.01312194  0.69198345  1
  Cl  Cl41  1  0.76735677  0.00912628  0.74807192  1
  Cl  Cl42  1  0.55322268  0.79167460  0.94455779  1
  Cl  Cl43  1  0.75517970  0.48118372  0.33928324  1
  Cl  Cl44  1  0.20863254  0.45751446  0.26984468  1
  Cl  Cl45  1  0.03776683  0.71140273  0.54589692  1
  Cl  Cl46  1  0.26726158  0.49062595  0.76324851  1
  Cl  Cl47  1  0.80844919  0.48206250  0.80035778  1
