# generated using pymatgen
data_YInH10C2(N2Cl3)2
_symmetry_space_group_name_H-M   'P 1'
_cell_length_a   8.00333479
_cell_length_b   11.09368710
_cell_length_c   7.99708676
_cell_angle_alpha   89.87606883
_cell_angle_beta   89.99997221
_cell_angle_gamma   89.99808446
_symmetry_Int_Tables_number   1
_chemical_formula_structural   YInH10C2(N2Cl3)2
_chemical_formula_sum   'Y2 In2 H20 C4 N8 Cl12'
_cell_volume   710.03161712
_cell_formula_units_Z   2
loop_
 _symmetry_equiv_pos_site_id
 _symmetry_equiv_pos_as_xyz
  1  'x, y, z'
loop_
 _atom_site_type_symbol
 _atom_site_label
 _atom_site_symmetry_multiplicity
 _atom_site_fract_x
 _atom_site_fract_y
 _atom_site_fract_z
 _atom_site_occupancy
  C  C0  1  0.49580395  0.28969810  0.49711735  1
  C  C1  1  0.99581977  0.21034130  0.00286706  1
  C  C2  1  0.50473508  0.78957950  0.50186711  1
  C  C3  1  0.00468033  0.71038066  0.99813915  1
  N  N4  1  0.60269924  0.23710250  0.59781607  1
  N  N5  1  0.39270818  0.23477085  0.39522293  1
  N  N6  1  0.10274800  0.26295023  0.90220262  1
  N  N7  1  0.89272502  0.26527281  0.10476532  1
  N  N8  1  0.60361843  0.73442936  0.60795742  1
  N  N9  1  0.40060484  0.73722357  0.39837330  1
  N  N10  1  0.10357600  0.76553719  0.89205283  1
  N  N11  1  0.90052850  0.76273146  0.10160676  1
  H  H12  1  0.49221636  0.38791970  0.49821089  1
  H  H13  1  0.67866640  0.28927004  0.67032215  1
  H  H14  1  0.61296779  0.14585236  0.61032278  1
  H  H15  1  0.31313596  0.28556023  0.32439857  1
  H  H16  1  0.38812863  0.14343624  0.38104201  1
  H  H17  1  0.99219912  0.11212568  0.00173743  1
  H  H18  1  0.17870092  0.21078059  0.82970596  1
  H  H19  1  0.11303742  0.35418333  0.88975171  1
  H  H20  1  0.81311249  0.21448161  0.17557749  1
  H  H21  1  0.88816299  0.35661232  0.11899601  1
  H  H22  1  0.50974821  0.88775829  0.49935146  1
  H  H23  1  0.67758376  0.78503377  0.68453651  1
  H  H24  1  0.61263279  0.64293361  0.61772723  1
  H  H25  1  0.33107802  0.78953361  0.31950992  1
  H  H26  1  0.38284104  0.64622697  0.39348348  1
  H  H27  1  0.00970985  0.61220289  0.00066412  1
  H  H28  1  0.17755120  0.71493122  0.81550874  1
  H  H29  1  0.11256457  0.85701913  0.88229596  1
  H  H30  1  0.83098832  0.71041396  0.18048080  1
  H  H31  1  0.88273404  0.85373753  0.10650423  1
  Y  Y32  1  0.49958828  0.00003193  0.99682078  1
  Y  Y33  1  0.99961222  0.49997318  0.50318238  1
  In  In34  1  0.00038991  0.00002097  0.49621573  1
  In  In35  1  0.50040895  0.49998473  0.00378012  1
  Cl  Cl36  1  0.49917456  0.23326912  0.99587455  1
  Cl  Cl37  1  0.23362772  0.98502574  0.19317454  1
  Cl  Cl38  1  0.69543861  0.01589127  0.26371098  1
  Cl  Cl39  1  0.99917266  0.26673908  0.50413679  1
  Cl  Cl40  1  0.30411204  0.01456468  0.73017910  1
  Cl  Cl41  1  0.76680896  0.98466025  0.80156630  1
  Cl  Cl42  1  0.50178915  0.76680712  0.00198415  1
  Cl  Cl43  1  0.73364681  0.51499015  0.30682599  1
  Cl  Cl44  1  0.19546152  0.48409826  0.23628805  1
  Cl  Cl45  1  0.00186268  0.73319404  0.49798360  1
  Cl  Cl46  1  0.26681124  0.51533179  0.69846101  1
  Cl  Cl47  1  0.80410682  0.48545002  0.76980532  1
