# generated using pymatgen
data_ZnSnH12C2(I3N)2
_symmetry_space_group_name_H-M   'P 1'
_cell_length_a   8.20383420
_cell_length_b   12.69859638
_cell_length_c   8.57048657
_cell_angle_alpha   89.78062799
_cell_angle_beta   90.00597173
_cell_angle_gamma   90.00070938
_symmetry_Int_Tables_number   1
_chemical_formula_structural   ZnSnH12C2(I3N)2
_chemical_formula_sum   'Zn2 Sn2 H24 C4 I12 N4'
_cell_volume   892.84256713
_cell_formula_units_Z   2
loop_
 _symmetry_equiv_pos_site_id
 _symmetry_equiv_pos_as_xyz
  1  'x, y, z'
loop_
 _atom_site_type_symbol
 _atom_site_label
 _atom_site_symmetry_multiplicity
 _atom_site_fract_x
 _atom_site_fract_y
 _atom_site_fract_z
 _atom_site_occupancy
  C  C0  1  0.39332552  0.24856277  0.38373149  1
  C  C1  1  0.88902556  0.24559918  0.11799156  1
  C  C2  1  0.61112372  0.74555039  0.61792904  1
  C  C3  1  0.10651511  0.74861067  0.88365848  1
  N  N4  1  0.53313526  0.26212049  0.49174487  1
  N  N5  1  0.02706127  0.25592124  0.00684637  1
  N  N6  1  0.47299749  0.75595578  0.50687547  1
  N  N7  1  0.96680315  0.76207995  0.99178311  1
  H  H8  1  0.43914222  0.24597338  0.26364312  1
  H  H9  1  0.33215454  0.17443985  0.41270431  1
  H  H10  1  0.30974880  0.31502084  0.39774260  1
  H  H11  1  0.61445807  0.19984091  0.48026236  1
  H  H12  1  0.59665267  0.33184327  0.46718462  1
  H  H13  1  0.49719217  0.26421025  0.60876161  1
  H  H14  1  0.93743988  0.24474477  0.23728243  1
  H  H15  1  0.82310357  0.17253051  0.09342951  1
  H  H16  1  0.80849962  0.31364323  0.10292980  1
  H  H17  1  0.10911294  0.19397572  0.01849982  1
  H  H18  1  0.09064248  0.32597671  0.02846572  1
  H  H19  1  0.98903678  0.25665452  0.89054480  1
  H  H20  1  0.56281836  0.74469732  0.73725087  1
  H  H21  1  0.67693503  0.67245484  0.59329332  1
  H  H22  1  0.69171946  0.81355650  0.60283465  1
  H  H23  1  0.40950516  0.82603427  0.52856051  1
  H  H24  1  0.39088995  0.69404410  0.51855040  1
  H  H25  1  0.51092335  0.75669242  0.39055176  1
  H  H26  1  0.06057561  0.74603228  0.76360352  1
  H  H27  1  0.19003654  0.81510391  0.89763904  1
  H  H28  1  0.16779532  0.67450793  0.91253686  1
  H  H29  1  0.90320253  0.83178336  0.96729740  1
  H  H30  1  0.88552967  0.69976859  0.98032532  1
  H  H31  1  0.00285561  0.76416236  0.10877639  1
  Zn  Zn32  1  0.55252844  0.94692076  0.08024139  1
  Zn  Zn33  1  0.94747599  0.44691100  0.58020240  1
  Sn  Sn34  1  0.05531580  0.99144235  0.42801340  1
  Sn  Sn35  1  0.44471149  0.49143971  0.92803441  1
  I  I36  1  0.46567611  0.26354672  0.90497619  1
  I  I37  1  0.23428861  0.01056449  0.11155378  1
  I  I38  1  0.66466104  0.01126776  0.35077960  1
  I  I39  1  0.96912729  0.24077230  0.59358391  1
  I  I40  1  0.30895947  0.98809003  0.66704930  1
  I  I41  1  0.76079215  0.99640191  0.86245034  1
  I  I42  1  0.53078403  0.74078623  0.09357172  1
  I  I43  1  0.73922069  0.49640367  0.36236606  1
  I  I44  1  0.19106841  0.48807854  0.16701552  1
  I  I45  1  0.03440376  0.76354621  0.40496008  1
  I  I46  1  0.26571720  0.51056144  0.61154910  1
  I  I47  1  0.83533585  0.51125280  0.85071826  1
