# generated using pymatgen
data_YAgH10C2(N2Cl3)2
_symmetry_space_group_name_H-M   'P 1'
_cell_length_a   7.96461435
_cell_length_b   10.28400721
_cell_length_c   7.95468375
_cell_angle_alpha   89.81426436
_cell_angle_beta   90.00026368
_cell_angle_gamma   90.00138369
_symmetry_Int_Tables_number   1
_chemical_formula_structural   YAgH10C2(N2Cl3)2
_chemical_formula_sum   'Y2 Ag2 H20 C4 N8 Cl12'
_cell_volume   651.55001752
_cell_formula_units_Z   2
loop_
 _symmetry_equiv_pos_site_id
 _symmetry_equiv_pos_as_xyz
  1  'x, y, z'
loop_
 _atom_site_type_symbol
 _atom_site_label
 _atom_site_symmetry_multiplicity
 _atom_site_fract_x
 _atom_site_fract_y
 _atom_site_fract_z
 _atom_site_occupancy
  C  C0  1  0.49513722  0.29350259  0.49642316  1
  C  C1  1  0.99518418  0.20649732  0.00357772  1
  C  C2  1  0.50514361  0.79353286  0.50296558  1
  C  C3  1  0.00509868  0.70647065  0.99703119  1
  N  N4  1  0.60262693  0.23666690  0.59701195  1
  N  N5  1  0.39151199  0.23538469  0.39364072  1
  N  N6  1  0.10268532  0.26333689  0.90302334  1
  N  N7  1  0.89154519  0.26461196  0.10636821  1
  N  N8  1  0.60538173  0.73543580  0.60962276  1
  N  N9  1  0.40092915  0.73668632  0.39953369  1
  N  N10  1  0.10533731  0.76457828  0.89038601  1
  N  N11  1  0.90085655  0.76330145  0.10044558  1
  H  H12  1  0.49130159  0.39920673  0.49863625  1
  H  H13  1  0.67612285  0.29355156  0.67230625  1
  H  H14  1  0.61781838  0.13849193  0.60610333  1
  H  H15  1  0.31423752  0.29195220  0.32125456  1
  H  H16  1  0.38186618  0.13704072  0.38075447  1
  H  H17  1  0.99132563  0.10079446  0.00134991  1
  H  H18  1  0.17618352  0.20645709  0.82772269  1
  H  H19  1  0.11790162  0.36151439  0.89395099  1
  H  H20  1  0.81426005  0.20803972  0.17873085  1
  H  H21  1  0.88191957  0.36295199  0.11926592  1
  H  H22  1  0.50925774  0.89923267  0.49980637  1
  H  H23  1  0.68103635  0.79194585  0.68327030  1
  H  H24  1  0.61332518  0.63714637  0.62492897  1
  H  H25  1  0.32850032  0.79366105  0.32279468  1
  H  H26  1  0.38659628  0.63847997  0.39028936  1
  H  H27  1  0.00923228  0.60077061  0.00019812  1
  H  H28  1  0.18101699  0.70807933  0.81675259  1
  H  H29  1  0.11326726  0.86286887  0.87507808  1
  H  H30  1  0.82843328  0.70632017  0.17717723  1
  H  H31  1  0.88650486  0.86150987  0.10968182  1
  Y  Y32  1  0.49902322  0.99998425  0.99757579  1
  Y  Y33  1  0.99902864  0.50002337  0.50243266  1
  Ag  Ag34  1  0.00135940  0.00006028  0.49685830  1
  Ag  Ag35  1  0.50136317  0.49994782  0.00314415  1
  Cl  Cl36  1  0.49871519  0.25525437  0.99663138  1
  Cl  Cl37  1  0.23695164  0.98481522  0.20245315  1
  Cl  Cl38  1  0.70363390  0.01356551  0.26049891  1
  Cl  Cl39  1  0.99867809  0.24475274  0.50339834  1
  Cl  Cl40  1  0.29559065  0.01510135  0.73451362  1
  Cl  Cl41  1  0.76265382  0.98662049  0.79416518  1
  Cl  Cl42  1  0.50131304  0.74473390  0.00268263  1
  Cl  Cl43  1  0.73694887  0.51517262  0.29755221  1
  Cl  Cl44  1  0.20362563  0.48643477  0.23949754  1
  Cl  Cl45  1  0.00135298  0.75527312  0.49728961  1
  Cl  Cl46  1  0.26265499  0.51339824  0.70584562  1
  Cl  Cl47  1  0.79558079  0.48490369  0.76548303  1
