# generated using pymatgen
data_ZrHgH10C2(N2Cl3)2
_symmetry_space_group_name_H-M   'P 1'
_cell_length_a   8.00476014
_cell_length_b   11.21932377
_cell_length_c   7.98322060
_cell_angle_alpha   89.66888170
_cell_angle_beta   90.00022750
_cell_angle_gamma   90.00139546
_symmetry_Int_Tables_number   1
_chemical_formula_structural   ZrHgH10C2(N2Cl3)2
_chemical_formula_sum   'Zr2 Hg2 H20 C4 N8 Cl12'
_cell_volume   716.94506952
_cell_formula_units_Z   2
loop_
 _symmetry_equiv_pos_site_id
 _symmetry_equiv_pos_as_xyz
  1  'x, y, z'
loop_
 _atom_site_type_symbol
 _atom_site_label
 _atom_site_symmetry_multiplicity
 _atom_site_fract_x
 _atom_site_fract_y
 _atom_site_fract_z
 _atom_site_occupancy
  C  C0  1  0.49454260  0.29168362  0.49566160  1
  C  C1  1  0.99459878  0.20830810  0.00433679  1
  C  C2  1  0.50600195  0.79176236  0.50328087  1
  C  C3  1  0.00594258  0.70824068  0.99671287  1
  N  N4  1  0.60241405  0.23859100  0.59487218  1
  N  N5  1  0.39103693  0.23897084  0.39247216  1
  N  N6  1  0.10249033  0.26142904  0.90516475  1
  N  N7  1  0.89108123  0.26102794  0.10753161  1
  N  N8  1  0.60606300  0.73880935  0.61047420  1
  N  N9  1  0.40187234  0.73883108  0.40078027  1
  N  N10  1  0.10601447  0.76120065  0.88953145  1
  N  N11  1  0.90178875  0.76115715  0.09918479  1
  H  H12  1  0.49035285  0.38873611  0.49963853  1
  H  H13  1  0.67695318  0.28952345  0.66939871  1
  H  H14  1  0.61516884  0.14829227  0.60426976  1
  H  H15  1  0.31199868  0.29069160  0.32287634  1
  H  H16  1  0.38499738  0.14889886  0.37635139  1
  H  H17  1  0.99037234  0.11126864  0.00034750  1
  H  H18  1  0.17701771  0.21049150  0.83066599  1
  H  H19  1  0.11526728  0.35169758  0.89581796  1
  H  H20  1  0.81201100  0.20929759  0.17711164  1
  H  H21  1  0.88506409  0.35110368  0.12367966  1
  H  H22  1  0.51000930  0.88881581  0.49870045  1
  H  H23  1  0.68002512  0.79039468  0.68481219  1
  H  H24  1  0.61560127  0.64855730  0.62416819  1
  H  H25  1  0.33089455  0.79000276  0.32232138  1
  H  H26  1  0.38544473  0.64875213  0.39617565  1
  H  H27  1  0.00997203  0.61118359  0.00129467  1
  H  H28  1  0.18000532  0.70962406  0.81520726  1
  H  H29  1  0.11553881  0.85146136  0.87583661  1
  H  H30  1  0.83080775  0.70997783  0.17762755  1
  H  H31  1  0.88534286  0.85123311  0.10377940  1
  Zr  Zr32  1  0.49860777  0.00004153  0.99817001  1
  Zr  Zr33  1  0.99860621  0.49996540  0.50183869  1
  Hg  Hg34  1  0.99830164  -0.00000273  0.49774862  1
  Hg  Hg35  1  0.49829433  0.50000910  0.00226886  1
  Cl  Cl36  1  0.49997070  0.21725433  0.99279978  1
  Cl  Cl37  1  0.24320894  0.98825818  0.17494561  1
  Cl  Cl38  1  0.67423035  0.01499392  0.25570912  1
  Cl  Cl39  1  0.99992893  0.28275208  0.50723688  1
  Cl  Cl40  1  0.32326388  0.01006117  0.74135111  1
  Cl  Cl41  1  0.75639925  0.98701062  0.82319447  1
  Cl  Cl42  1  0.50270785  0.78287242  0.00527601  1
  Cl  Cl43  1  0.74319357  0.51174342  0.32506600  1
  Cl  Cl44  1  0.17420350  0.48498695  0.24428416  1
  Cl  Cl45  1  0.00276125  0.71713353  0.49467165  1
  Cl  Cl46  1  0.25639981  0.51300033  0.67681529  1
  Cl  Cl47  1  0.82324925  0.48996701  0.75864413  1
