# generated using pymatgen
data_ZrH10PtC2(N2Cl3)2
_symmetry_space_group_name_H-M   'P 1'
_cell_length_a   8.20569083
_cell_length_b   9.34259794
_cell_length_c   8.39589780
_cell_angle_alpha   90.70312236
_cell_angle_beta   89.99952749
_cell_angle_gamma   90.02075605
_symmetry_Int_Tables_number   1
_chemical_formula_structural   ZrH10PtC2(N2Cl3)2
_chemical_formula_sum   'Zr2 H20 Pt2 C4 N8 Cl12'
_cell_volume   643.60175708
_cell_formula_units_Z   2
loop_
 _symmetry_equiv_pos_site_id
 _symmetry_equiv_pos_as_xyz
  1  'x, y, z'
loop_
 _atom_site_type_symbol
 _atom_site_label
 _atom_site_symmetry_multiplicity
 _atom_site_fract_x
 _atom_site_fract_y
 _atom_site_fract_z
 _atom_site_occupancy
  C  C0  1  0.49362472  0.28267472  0.47686400  1
  C  C1  1  0.99381524  0.21712977  0.02297992  1
  C  C2  1  0.51559713  0.79945578  0.50149394  1
  C  C3  1  0.01571728  0.70067912  0.99845640  1
  N  N4  1  0.58466025  0.24531921  0.59775198  1
  N  N5  1  0.36810793  0.21169250  0.42030852  1
  N  N6  1  0.08513224  0.25487280  0.90244235  1
  N  N7  1  0.86846070  0.28811276  0.07984147  1
  N  N8  1  0.59844739  0.73866337  0.61554938  1
  N  N9  1  0.42161714  0.73445050  0.39728361  1
  N  N10  1  0.09797558  0.76166035  0.88406522  1
  N  N11  1  0.92127555  0.76538303  0.10243819  1
  H  H12  1  0.52807764  0.38004409  0.41442792  1
  H  H13  1  0.67767967  0.31049697  0.63510948  1
  H  H14  1  0.56152950  0.15602291  0.66294381  1
  H  H15  1  0.30459673  0.25670466  0.32924401  1
  H  H16  1  0.31545289  0.12457095  0.47314230  1
  H  H17  1  0.02785311  0.11940558  0.08489047  1
  H  H18  1  0.17794898  0.18964034  0.86480988  1
  H  H19  1  0.06250963  0.34454295  0.83771919  1
  H  H20  1  0.80473479  0.24281361  0.17058148  1
  H  H21  1  0.81622404  0.37554230  0.02738415  1
  H  H22  1  0.52793646  0.91484421  0.49071031  1
  H  H23  1  0.66872846  0.80164212  0.68878344  1
  H  H24  1  0.59576722  0.63174743  0.63807275  1
  H  H25  1  0.35957897  0.79447157  0.31586099  1
  H  H26  1  0.40116912  0.62688835  0.39490713  1
  H  H27  1  0.02915744  0.58543732  0.00982847  1
  H  H28  1  0.16865162  0.69892560  0.81102873  1
  H  H29  1  0.09407992  0.86842283  0.86087751  1
  H  H30  1  0.85970833  0.70524414  0.18413847  1
  H  H31  1  0.89981739  0.87279378  0.10421689  1
  Zr  Zr32  1  0.51229751  0.99515443  0.00679374  1
  Zr  Zr33  1  0.01246097  0.50478691  0.49350629  1
  Pt  Pt34  1  0.01372899  0.00320688  0.49485635  1
  Pt  Pt35  1  0.51359618  0.49677908  0.00554322  1
  Cl  Cl36  1  0.47966094  0.25932279  0.01139425  1
  Cl  Cl37  1  0.25950089  0.96989843  0.16625079  1
  Cl  Cl38  1  0.68634665  0.01924621  0.24532002  1
  Cl  Cl39  1  0.97940435  0.24061997  0.48934311  1
  Cl  Cl40  1  0.33743167  0.00704229  0.75942285  1
  Cl  Cl41  1  0.75686651  0.00107705  0.82943521  1
  Cl  Cl42  1  0.53125034  0.73457305  0.00061997  1
  Cl  Cl43  1  0.75963734  0.52991989  0.33395754  1
  Cl  Cl44  1  0.18620153  0.48049521  0.25482798  1
  Cl  Cl45  1  0.03159975  0.76540368  0.49911340  1
  Cl  Cl46  1  0.25699284  0.49909800  0.67075564  1
  Cl  Cl47  1  0.83740981  0.49314346  0.74081205  1
