# generated using pymatgen
data_ZrH10OsC2(N2Cl3)2
_symmetry_space_group_name_H-M   'P 1'
_cell_length_a   7.48544342
_cell_length_b   9.14095763
_cell_length_c   9.08229559
_cell_angle_alpha   97.55703172
_cell_angle_beta   89.98645691
_cell_angle_gamma   90.00274947
_symmetry_Int_Tables_number   1
_chemical_formula_structural   ZrH10OsC2(N2Cl3)2
_chemical_formula_sum   'Zr2 H20 Os2 C4 N8 Cl12'
_cell_volume   616.05045485
_cell_formula_units_Z   2
loop_
 _symmetry_equiv_pos_site_id
 _symmetry_equiv_pos_as_xyz
  1  'x, y, z'
loop_
 _atom_site_type_symbol
 _atom_site_label
 _atom_site_symmetry_multiplicity
 _atom_site_fract_x
 _atom_site_fract_y
 _atom_site_fract_z
 _atom_site_occupancy
  C  C0  1  0.50187695  0.35298202  0.57000079  1
  C  C1  1  0.00203298  0.14703040  0.92990041  1
  C  C2  1  0.65002067  0.72268876  0.57059920  1
  C  C3  1  0.15010808  0.77735284  0.92950418  1
  N  N4  1  0.60700929  0.29303006  0.66089554  1
  N  N5  1  0.40815193  0.27960289  0.46361686  1
  N  N6  1  0.10727531  0.20694407  0.83901823  1
  N  N7  1  0.90829487  0.22045672  0.03629693  1
  N  N8  1  0.76948443  0.62567946  0.59147126  1
  N  N9  1  0.17848865  0.62427575  0.56593142  1
  N  N10  1  0.26960052  0.87434776  0.90859804  1
  N  N11  1  0.67855098  0.87565094  0.93411262  1
  H  H12  1  0.49112261  0.47248018  0.58351887  1
  H  H13  1  0.66896248  0.35941763  0.74552091  1
  H  H14  1  0.63976462  0.18268041  0.64653163  1
  H  H15  1  0.33984871  0.33373216  0.38972413  1
  H  H16  1  0.40401409  0.16699738  0.44837451  1
  H  H17  1  0.99118996  0.02753545  0.91637288  1
  H  H18  1  0.16921040  0.14052974  0.75436976  1
  H  H19  1  0.14008780  0.31728137  0.85338264  1
  H  H20  1  0.83990734  0.16635201  0.11019242  1
  H  H21  1  0.90422441  0.33305496  0.05152644  1
  H  H22  1  0.62911533  0.75352801  0.45961137  1
  H  H23  1  0.55888238  0.76750138  0.65958540  1
  H  H24  1  0.77427142  0.60317591  0.70024248  1
  H  H25  1  0.21836100  0.73174504  0.56326769  1
  H  H26  1  0.23562042  0.58366428  0.65503918  1
  H  H27  1  0.12915186  0.74653689  0.04050366  1
  H  H28  1  0.05900632  0.73252418  0.84054204  1
  H  H29  1  0.27444276  0.89682950  0.79983477  1
  H  H30  1  0.71831648  0.76814869  0.93674499  1
  H  H31  1  0.73574341  0.91623851  0.84499633  1
  Zr  Zr32  1  0.48524189  0.96689788  0.07369265  1
  Zr  Zr33  1  0.98517173  0.53310209  0.42638199  1
  Os  Os34  1  0.00469808  0.01922929  0.42904702  1
  Os  Os35  1  0.50477208  0.48078013  0.07099785  1
  Cl  Cl36  1  0.49766857  0.21283263  0.98339254  1
  Cl  Cl37  1  0.20167714  0.05301728  0.22495364  1
  Cl  Cl38  1  0.68362988  0.06565985  0.28899965  1
  Cl  Cl39  1  0.99753489  0.28716966  0.51666965  1
  Cl  Cl40  1  0.26567229  0.97760129  0.56537128  1
  Cl  Cl41  1  0.81232224  0.98657285  0.62936038  1
  Cl  Cl42  1  0.47296875  0.72910132  0.18929447  1
  Cl  Cl43  1  0.70174006  0.44701261  0.27504281  1
  Cl  Cl44  1  0.18359859  0.43436872  0.21101606  1
  Cl  Cl45  1  0.97296446  0.77090595  0.31079080  1
  Cl  Cl46  1  0.31247617  0.51348165  0.87071721  1
  Cl  Cl47  1  0.76574409  0.52233442  0.93454914  1
