# generated using pymatgen
data_ZrCdH10C2(N2Cl3)2
_symmetry_space_group_name_H-M   'P 1'
_cell_length_a   7.94699280
_cell_length_b   11.53464088
_cell_length_c   8.11394094
_cell_angle_alpha   89.38445632
_cell_angle_beta   89.99983491
_cell_angle_gamma   89.99957236
_symmetry_Int_Tables_number   1
_chemical_formula_structural   ZrCdH10C2(N2Cl3)2
_chemical_formula_sum   'Zr2 Cd2 H20 C4 N8 Cl12'
_cell_volume   743.72721996
_cell_formula_units_Z   2
loop_
 _symmetry_equiv_pos_site_id
 _symmetry_equiv_pos_as_xyz
  1  'x, y, z'
loop_
 _atom_site_type_symbol
 _atom_site_label
 _atom_site_symmetry_multiplicity
 _atom_site_fract_x
 _atom_site_fract_y
 _atom_site_fract_z
 _atom_site_occupancy
  C  C0  1  0.49543936  0.28757133  0.49656958  1
  C  C1  1  0.99550437  0.21244315  0.00341721  1
  C  C2  1  0.50413069  0.78827885  0.50207098  1
  C  C3  1  0.00415866  0.71171959  0.99792510  1
  N  N4  1  0.60339767  0.23694687  0.59649248  1
  N  N5  1  0.39428237  0.23488070  0.39366921  1
  N  N6  1  0.10352871  0.26306891  0.90356859  1
  N  N7  1  0.89437473  0.26511898  0.10635416  1
  N  N8  1  0.59802998  0.73524001  0.61262122  1
  N  N9  1  0.40495155  0.73783287  0.39517571  1
  N  N10  1  0.09802699  0.76476958  0.88736081  1
  N  N11  1  0.90496599  0.76215258  0.10482143  1
  H  H12  1  0.48901800  0.38188796  0.49953408  1
  H  H13  1  0.67771325  0.28715441  0.66901385  1
  H  H14  1  0.61538791  0.14918911  0.60822832  1
  H  H15  1  0.31314816  0.28370754  0.32481081  1
  H  H16  1  0.39334395  0.14725683  0.37757733  1
  H  H17  1  0.98899214  0.11812971  0.00034703  1
  H  H18  1  0.17781599  0.21286764  0.83101085  1
  H  H19  1  0.11562121  0.35082906  0.89193963  1
  H  H20  1  0.81317636  0.21629850  0.17514082  1
  H  H21  1  0.89352873  0.35273694  0.12254562  1
  H  H22  1  0.50918929  0.88265894  0.49858126  1
  H  H23  1  0.66844208  0.78380556  0.69088887  1
  H  H24  1  0.60684248  0.64721242  0.62296837  1
  H  H25  1  0.33915024  0.78798545  0.31355457  1
  H  H26  1  0.38682852  0.65030547  0.39171217  1
  H  H27  1  0.00926269  0.61734061  0.00143421  1
  H  H28  1  0.16844284  0.71621248  0.80908488  1
  H  H29  1  0.10677937  0.85279865  0.87698685  1
  H  H30  1  0.83918725  0.71199255  0.18645069  1
  H  H31  1  0.88679247  0.84967596  0.10826625  1
  Zr  Zr32  1  0.49914157  0.99836383  0.99674679  1
  Zr  Zr33  1  0.99903471  0.50163194  0.50327896  1
  Cd  Cd34  1  0.99934139  0.00187351  0.49642671  1
  Cd  Cd35  1  0.49917100  0.49813360  0.00355475  1
  Cl  Cl36  1  0.50184080  0.21036675  0.99168780  1
  Cl  Cl37  1  0.22792121  0.98653542  0.14800046  1
  Cl  Cl38  1  0.65253313  0.01279257  0.26383079  1
  Cl  Cl39  1  0.00164927  0.28963160  0.50839325  1
  Cl  Cl40  1  0.34668367  0.00990946  0.72994797  1
  Cl  Cl41  1  0.77210724  0.98450439  0.84667157  1
  Cl  Cl42  1  0.50118157  0.78637021  0.00375321  1
  Cl  Cl43  1  0.72785398  0.51348368  0.35194025  1
  Cl  Cl44  1  0.15241356  0.48714726  0.23617707  1
  Cl  Cl45  1  0.00111378  0.71362774  0.49623964  1
  Cl  Cl46  1  0.27202871  0.51547431  0.65328013  1
  Cl  Cl47  1  0.84654975  0.49014751  0.77005246  1
