# generated using pymatgen
data_ZrH10PdC2(N2Cl3)2
_symmetry_space_group_name_H-M   'P 1'
_cell_length_a   8.10256334
_cell_length_b   9.63428160
_cell_length_c   8.08961292
_cell_angle_alpha   89.62102961
_cell_angle_beta   89.99993207
_cell_angle_gamma   90.00258990
_symmetry_Int_Tables_number   1
_chemical_formula_structural   ZrH10PdC2(N2Cl3)2
_chemical_formula_sum   'Zr2 H20 Pd2 C4 N8 Cl12'
_cell_volume   631.48059859
_cell_formula_units_Z   2
loop_
 _symmetry_equiv_pos_site_id
 _symmetry_equiv_pos_as_xyz
  1  'x, y, z'
loop_
 _atom_site_type_symbol
 _atom_site_label
 _atom_site_symmetry_multiplicity
 _atom_site_fract_x
 _atom_site_fract_y
 _atom_site_fract_z
 _atom_site_occupancy
  C  C0  1  0.49664969  0.29500610  0.49597853  1
  C  C1  1  0.99668802  0.20500222  0.00401717  1
  C  C2  1  0.50383718  0.79495011  0.50294408  1
  C  C3  1  0.00380324  0.70504701  0.99706077  1
  N  N4  1  0.60522615  0.23512446  0.59266607  1
  N  N5  1  0.39206646  0.23351352  0.39744883  1
  N  N6  1  0.10527112  0.26489039  0.90735554  1
  N  N7  1  0.89210094  0.26648654  0.10256302  1
  N  N8  1  0.60009910  0.73341071  0.61053106  1
  N  N9  1  0.40340125  0.73513947  0.39864698  1
  N  N10  1  0.10006415  0.76660063  0.88946550  1
  N  N11  1  0.90335349  0.76484638  0.10133898  1
  H  H12  1  0.49261680  0.40763603  0.49796150  1
  H  H13  1  0.67848637  0.29606349  0.66536274  1
  H  H14  1  0.62260846  0.13071494  0.60135965  1
  H  H15  1  0.31496571  0.29396248  0.32723692  1
  H  H16  1  0.38147595  0.12881799  0.38480684  1
  H  H17  1  0.99262834  0.09237266  0.00201344  1
  H  H18  1  0.17852641  0.20395929  0.83464725  1
  H  H19  1  0.12268558  0.36930264  0.89869190  1
  H  H20  1  0.81499376  0.20603046  0.17275797  1
  H  H21  1  0.88153832  0.37117808  0.11522921  1
  H  H22  1  0.50821381  0.90757743  0.49951608  1
  H  H23  1  0.67352180  0.79373345  0.68380459  1
  H  H24  1  0.60678883  0.62884320  0.62828825  1
  H  H25  1  0.33334185  0.79630098  0.32214494  1
  H  H26  1  0.38852263  0.63065081  0.38852796  1
  H  H27  1  0.00820653  0.59242222  0.00050125  1
  H  H28  1  0.17350308  0.70628619  0.81620752  1
  H  H29  1  0.10672786  0.87116474  0.87169944  1
  H  H30  1  0.83329987  0.70367735  0.17784476  1
  H  H31  1  0.88844975  0.86933574  0.11144218  1
  Zr  Zr32  1  0.49877234  0.00005236  0.99739953  1
  Zr  Zr33  1  0.99878402  0.49995045  0.50261104  1
  Pd  Pd34  1  0.00017102  0.99992003  0.50085761  1
  Pd  Pd35  1  0.50017585  0.50008112  0.99916180  1
  Cl  Cl36  1  0.49966526  0.25662559  0.99826740  1
  Cl  Cl37  1  0.24886546  0.98515687  0.17965060  1
  Cl  Cl38  1  0.68176610  0.01172835  0.24793357  1
  Cl  Cl39  1  0.99964436  0.24337640  0.50175735  1
  Cl  Cl40  1  0.31869033  0.01567136  0.74598259  1
  Cl  Cl41  1  0.75028184  0.98777630  0.81619061  1
  Cl  Cl42  1  0.49994784  0.74349367  0.00070164  1
  Cl  Cl43  1  0.74887322  0.51482294  0.32035415  1
  Cl  Cl44  1  0.18176311  0.48827262  0.25206620  1
  Cl  Cl45  1  0.99997099  0.75650804  0.49927647  1
  Cl  Cl46  1  0.25029278  0.51224893  0.68381342  1
  Cl  Cl47  1  0.81869231  0.48433023  0.75401983  1
