# generated using pymatgen
data_BaH10RuC2(N2Cl3)2
_symmetry_space_group_name_H-M   'P 1'
_cell_length_a   7.74418929
_cell_length_b   10.69417232
_cell_length_c   7.72915315
_cell_angle_alpha   89.80036749
_cell_angle_beta   90.00001564
_cell_angle_gamma   90.00204283
_symmetry_Int_Tables_number   1
_chemical_formula_structural   BaH10RuC2(N2Cl3)2
_chemical_formula_sum   'Ba2 H20 Ru2 C4 N8 Cl12'
_cell_volume   640.10676038
_cell_formula_units_Z   2
loop_
 _symmetry_equiv_pos_site_id
 _symmetry_equiv_pos_as_xyz
  1  'x, y, z'
loop_
 _atom_site_type_symbol
 _atom_site_label
 _atom_site_symmetry_multiplicity
 _atom_site_fract_x
 _atom_site_fract_y
 _atom_site_fract_z
 _atom_site_occupancy
  C  C0  1  0.49460690  0.29341341  0.49626654  1
  C  C1  1  0.99464892  0.20658184  0.00374385  1
  C  C2  1  0.50483117  0.79335811  0.50320168  1
  C  C3  1  0.00477318  0.70664693  0.99679953  1
  N  N4  1  0.60409819  0.23743188  0.59959894  1
  N  N5  1  0.38962285  0.23765532  0.38854238  1
  N  N6  1  0.10416913  0.26256495  0.90043457  1
  N  N7  1  0.88966303  0.26234101  0.11146503  1
  N  N8  1  0.60951508  0.73754389  0.61153512  1
  N  N9  1  0.39685654  0.73737933  0.39861890  1
  N  N10  1  0.10946493  0.76247272  0.88847200  1
  N  N11  1  0.89677723  0.76261505  0.10135892  1
  H  H12  1  0.49009000  0.39512962  0.50037622  1
  H  H13  1  0.68676695  0.29091453  0.67094206  1
  H  H14  1  0.60546024  0.14323008  0.62137333  1
  H  H15  1  0.30270304  0.29139636  0.32215309  1
  H  H16  1  0.39428796  0.14447152  0.36014620  1
  H  H17  1  0.99011024  0.10486894  0.99961456  1
  H  H18  1  0.18683060  0.20908283  0.82909553  1
  H  H19  1  0.10555054  0.35677226  0.87867783  1
  H  H20  1  0.80271774  0.20860185  0.17782986  1
  H  H21  1  0.89434209  0.35552280  0.13986885  1
  H  H22  1  0.50790886  0.89512263  0.49955507  1
  H  H23  1  0.68009689  0.79167900  0.69416536  1
  H  H24  1  0.63275644  0.64348305  0.61274480  1
  H  H25  1  0.32905586  0.79053372  0.31211222  1
  H  H26  1  0.36950127  0.64406745  0.40386979  1
  H  H27  1  0.00787872  0.60488335  0.00044021  1
  H  H28  1  0.18007156  0.70834691  0.80586040  1
  H  H29  1  0.13268845  0.85653265  0.88727476  1
  H  H30  1  0.82897954  0.70945493  0.18786765  1
  H  H31  1  0.86940565  0.85592862  0.09610584  1
  Ru  Ru32  1  0.50008593  0.00002038  0.99803164  1
  Ru  Ru33  1  0.00008193  0.49998436  0.50196922  1
  Ba  Ba34  1  0.00172370  0.00000755  0.49701468  1
  Ba  Ba35  1  0.50172787  0.49999904  0.00297865  1
  Cl  Cl36  1  0.49953063  0.22451107  0.99474951  1
  Cl  Cl37  1  0.25124337  0.99038233  0.19017907  1
  Cl  Cl38  1  0.69231047  0.00949711  0.24766022  1
  Cl  Cl39  1  0.99948863  0.27549370  0.50529013  1
  Cl  Cl40  1  0.30713396  0.00921462  0.74930608  1
  Cl  Cl41  1  0.74888103  0.99107227  0.80448407  1
  Cl  Cl42  1  0.50100610  0.77555282  0.00292748  1
  Cl  Cl43  1  0.75123711  0.50962047  0.30982293  1
  Cl  Cl44  1  0.19230472  0.49049638  0.25233658  1
  Cl  Cl45  1  0.00103959  0.72445302  0.49702712  1
  Cl  Cl46  1  0.24887109  0.50893061  0.69552686  1
  Cl  Cl47  1  0.80712342  0.49079971  0.75068948  1
