# generated using pymatgen
data_CdH10RuC2(N2Cl3)2
_symmetry_space_group_name_H-M   'P 1'
_cell_length_a   8.64031156
_cell_length_b   8.36226239
_cell_length_c   8.34516510
_cell_angle_alpha   91.31080561
_cell_angle_beta   90.02234701
_cell_angle_gamma   90.02462837
_symmetry_Int_Tables_number   1
_chemical_formula_structural   CdH10RuC2(N2Cl3)2
_chemical_formula_sum   'Cd2 H20 Ru2 C4 N8 Cl12'
_cell_volume   602.80158784
_cell_formula_units_Z   2
loop_
 _symmetry_equiv_pos_site_id
 _symmetry_equiv_pos_as_xyz
  1  'x, y, z'
loop_
 _atom_site_type_symbol
 _atom_site_label
 _atom_site_symmetry_multiplicity
 _atom_site_fract_x
 _atom_site_fract_y
 _atom_site_fract_z
 _atom_site_occupancy
  C  C0  1  0.48444914  0.28073034  0.53756421  1
  C  C1  1  0.98412580  0.22142924  0.96166950  1
  C  C2  1  0.52555309  0.75394615  0.48948252  1
  C  C3  1  0.02545877  0.74169612  0.00666457  1
  N  N4  1  0.61640581  0.21796817  0.57769223  1
  N  N5  1  0.41741691  0.26210836  0.39604280  1
  N  N6  1  0.11753839  0.28203392  0.92303540  1
  N  N7  1  0.91802549  0.23704357  0.10378436  1
  N  N8  1  0.53699815  0.71221695  0.63794317  1
  N  N9  1  0.39838970  0.73402044  0.40137906  1
  N  N10  1  0.03524783  0.79164575  0.86092163  1
  N  N11  1  0.90222408  0.76332520  0.10023509  1
  H  H12  1  0.42270959  0.35234117  0.62774078  1
  H  H13  1  0.65919747  0.24087059  0.68967987  1
  H  H14  1  0.68544413  0.15667827  0.49860432  1
  H  H15  1  0.32359003  0.33172200  0.36707376  1
  H  H16  1  0.47323596  0.20237977  0.30423480  1
  H  H17  1  0.92050963  0.15419577  0.86955753  1
  H  H18  1  0.15919407  0.26173221  0.81021615  1
  H  H19  1  0.18885145  0.33836873  0.00367070  1
  H  H20  1  0.82254256  0.16915454  0.13102248  1
  H  H21  1  0.97441278  0.29449346  0.19668656  1
  H  H22  1  0.62350364  0.81399337  0.43471969  1
  H  H23  1  0.63115505  0.74862951  0.70377646  1
  H  H24  1  0.44545688  0.66379944  0.69750520  1
  H  H25  1  0.40805644  0.74423251  0.27931263  1
  H  H26  1  0.31295408  0.65921767  0.44144602  1
  H  H27  1  0.12139225  0.67284501  0.05448079  1
  H  H28  1  0.12565140  0.75335208  0.79059716  1
  H  H29  1  0.94484258  0.84909814  0.80784908  1
  H  H30  1  0.91555427  0.74698961  0.22112622  1
  H  H31  1  0.81880644  0.84405048  0.06793477  1
  Ru  Ru32  1  0.48618961  0.99674945  0.00318383  1
  Ru  Ru33  1  0.98611778  0.50372537  0.49788625  1
  Cd  Cd34  1  0.19033956  0.99551594  0.45182101  1
  Cd  Cd35  1  0.68996087  0.50701069  0.04830401  1
  Cl  Cl36  1  0.48549896  0.28587208  0.98238917  1
  Cl  Cl37  1  0.24220495  0.01021813  0.15646326  1
  Cl  Cl38  1  0.64889441  0.01125152  0.22953560  1
  Cl  Cl39  1  0.98538786  0.21476247  0.51959548  1
  Cl  Cl40  1  0.30596452  0.00541173  0.72775879  1
  Cl  Cl41  1  0.71085348  0.97366794  0.83728067  1
  Cl  Cl42  1  0.46146852  0.70845571  0.01619037  1
  Cl  Cl43  1  0.74282325  0.48794636  0.34332409  1
  Cl  Cl44  1  0.14806962  0.48788410  0.27118550  1
  Cl  Cl45  1  0.96183547  0.79234425  0.48444220  1
  Cl  Cl46  1  0.21045657  0.52843890  0.66474901  1
  Cl  Cl47  1  0.80506001  0.49449981  0.77234599  1
