# generated using pymatgen
data_TlH10RhC2(N2Cl3)2
_symmetry_space_group_name_H-M   'P 1'
_cell_length_a   7.79363425
_cell_length_b   10.69170533
_cell_length_c   7.77504187
_cell_angle_alpha   89.61253461
_cell_angle_beta   90.00154846
_cell_angle_gamma   90.00243624
_symmetry_Int_Tables_number   1
_chemical_formula_structural   TlH10RhC2(N2Cl3)2
_chemical_formula_sum   'Tl2 H20 Rh2 C4 N8 Cl12'
_cell_volume   647.85797145
_cell_formula_units_Z   2
loop_
 _symmetry_equiv_pos_site_id
 _symmetry_equiv_pos_as_xyz
  1  'x, y, z'
loop_
 _atom_site_type_symbol
 _atom_site_label
 _atom_site_symmetry_multiplicity
 _atom_site_fract_x
 _atom_site_fract_y
 _atom_site_fract_z
 _atom_site_occupancy
  C  C0  1  0.49505649  0.29333736  0.49598128  1
  C  C1  1  0.99509166  0.20666830  0.00403308  1
  C  C2  1  0.50439053  0.79330450  0.50304166  1
  C  C3  1  0.00435708  0.70670998  0.99694131  1
  N  N4  1  0.60503135  0.23764378  0.59798444  1
  N  N5  1  0.38941976  0.23775678  0.39016858  1
  N  N6  1  0.10508162  0.26235250  0.90205476  1
  N  N7  1  0.88947227  0.26223097  0.10982325  1
  N  N8  1  0.60781168  0.73763603  0.61181206  1
  N  N9  1  0.39823315  0.73764437  0.39788657  1
  N  N10  1  0.10774277  0.76237667  0.88821133  1
  N  N11  1  0.89816918  0.76234964  0.10208919  1
  H  H12  1  0.49069810  0.39499763  0.49945994  1
  H  H13  1  0.68606486  0.29132772  0.66953715  1
  H  H14  1  0.61033220  0.14317984  0.61700606  1
  H  H15  1  0.30402202  0.29170491  0.32323849  1
  H  H16  1  0.38997853  0.14402240  0.36592744  1
  H  H17  1  0.99071564  0.10500020  0.00053780  1
  H  H18  1  0.18609677  0.20867705  0.83051935  1
  H  H19  1  0.11040221  0.35680923  0.88304671  1
  H  H20  1  0.80405058  0.20829008  0.17673823  1
  H  H21  1  0.89002906  0.35596457  0.13408460  1
  H  H22  1  0.50702277  0.89503337  0.49962093  1
  H  H23  1  0.67860114  0.79181932  0.69293970  1
  H  H24  1  0.62774620  0.64327744  0.61707938  1
  H  H25  1  0.32980050  0.79116928  0.31308865  1
  H  H26  1  0.37472537  0.64376758  0.39894315  1
  H  H27  1  0.00699595  0.60497871  0.00038279  1
  H  H28  1  0.17855481  0.70821366  0.80710092  1
  H  H29  1  0.12767614  0.85673117  0.88293357  1
  H  H30  1  0.82975399  0.70882025  0.18687227  1
  H  H31  1  0.87464602  0.85621649  0.10102961  1
  Rh  Rh32  1  0.49985331  0.00003234  0.99782954  1
  Rh  Rh33  1  0.99985409  0.49997512  0.50217143  1
  Tl  Tl34  1  0.00185640  0.00003739  0.49624452  1
  Tl  Tl35  1  0.50186267  0.49997281  0.00374694  1
  Cl  Cl36  1  0.49965662  0.22101079  0.99454935  1
  Cl  Cl37  1  0.25713908  0.99131195  0.18367196  1
  Cl  Cl38  1  0.68538855  0.00820812  0.24119750  1
  Cl  Cl39  1  0.99961815  0.27899832  0.50548357  1
  Cl  Cl40  1  0.31390346  0.00860215  0.75478025  1
  Cl  Cl41  1  0.74264093  0.99210638  0.81157758  1
  Cl  Cl42  1  0.50068983  0.77906559  0.00248662  1
  Cl  Cl43  1  0.75712226  0.50868374  0.31631941  1
  Cl  Cl44  1  0.18537570  0.49178592  0.25881537  1
  Cl  Cl45  1  0.00072723  0.72094309  0.49747534  1
  Cl  Cl46  1  0.24265328  0.50790567  0.68843991  1
  Cl  Cl47  1  0.81390737  0.49141184  0.74520119  1
