# generated using pymatgen
data_InH10RhC2(N2Cl3)2
_symmetry_space_group_name_H-M   'P 1'
_cell_length_a   7.73625678
_cell_length_b   10.48578521
_cell_length_c   7.71978394
_cell_angle_alpha   89.69515292
_cell_angle_beta   90.00348088
_cell_angle_gamma   89.99883703
_symmetry_Int_Tables_number   1
_chemical_formula_structural   InH10RhC2(N2Cl3)2
_chemical_formula_sum   'In2 H20 Rh2 C4 N8 Cl12'
_cell_volume   626.22561944
_cell_formula_units_Z   2
loop_
 _symmetry_equiv_pos_site_id
 _symmetry_equiv_pos_as_xyz
  1  'x, y, z'
loop_
 _atom_site_type_symbol
 _atom_site_label
 _atom_site_symmetry_multiplicity
 _atom_site_fract_x
 _atom_site_fract_y
 _atom_site_fract_z
 _atom_site_occupancy
  C  C0  1  0.49503275  0.29373429  0.49619989  1
  C  C1  1  0.99506484  0.20626251  0.00380904  1
  C  C2  1  0.50461704  0.79369402  0.50321803  1
  C  C3  1  0.00457191  0.70630902  0.99676851  1
  N  N4  1  0.60512391  0.23700580  0.59933332  1
  N  N5  1  0.38934075  0.23689798  0.38941174  1
  N  N6  1  0.10517578  0.26299209  0.90071325  1
  N  N7  1  0.88937802  0.26310487  0.11058802  1
  N  N8  1  0.60881396  0.73673854  0.61204914  1
  N  N9  1  0.39716966  0.73704175  0.39792545  1
  N  N10  1  0.10876528  0.76327937  0.88795840  1
  N  N11  1  0.89710587  0.76295217  0.10204001  1
  H  H12  1  0.49064383  0.39733337  0.49965162  1
  H  H13  1  0.68463888  0.29178276  0.67367096  1
  H  H14  1  0.61225856  0.14059440  0.61617052  1
  H  H15  1  0.30552383  0.29188720  0.31941634  1
  H  H16  1  0.38829692  0.14104070  0.36708202  1
  H  H17  1  0.99065597  0.10266480  0.00032791  1
  H  H18  1  0.18468243  0.20821651  0.82637783  1
  H  H19  1  0.11232922  0.35940373  0.88391172  1
  H  H20  1  0.80553953  0.20811451  0.18056133  1
  H  H21  1  0.88834995  0.35895272  0.13293774  1
  H  H22  1  0.50776463  0.89734236  0.49978385  1
  H  H23  1  0.68268831  0.79184126  0.69161959  1
  H  H24  1  0.62631329  0.64036170  0.61905574  1
  H  H25  1  0.32609487  0.79178191  0.31465856  1
  H  H26  1  0.37522433  0.64113099  0.39723810  1
  H  H27  1  0.00773966  0.60266217  0.00019495  1
  H  H28  1  0.18265977  0.70818512  0.80840156  1
  H  H29  1  0.12624529  0.85965355  0.88096845  1
  H  H30  1  0.82603407  0.70820628  0.18529121  1
  H  H31  1  0.87514239  0.85886214  0.10272798  1
  Rh  Rh32  1  0.49964902  0.00002281  0.99805382  1
  Rh  Rh33  1  0.99965612  0.49998164  0.50195260  1
  In  In34  1  0.00249290  0.00001654  0.49650549  1
  In  In35  1  0.50250761  0.49999062  0.00348006  1
  Cl  Cl36  1  0.49948071  0.22767132  0.99572068  1
  Cl  Cl37  1  0.25490506  0.99010001  0.18900604  1
  Cl  Cl38  1  0.69041214  0.00843154  0.24296788  1
  Cl  Cl39  1  0.99947627  0.27233369  0.50432205  1
  Cl  Cl40  1  0.30876947  0.00994888  0.75296693  1
  Cl  Cl41  1  0.74419750  0.99171619  0.80684018  1
  Cl  Cl42  1  0.50058043  0.77237954  0.00225119  1
  Cl  Cl43  1  0.75489059  0.50990118  0.31099165  1
  Cl  Cl44  1  0.19040016  0.49156739  0.25704685  1
  Cl  Cl45  1  0.00062114  0.72762608  0.49771722  1
  Cl  Cl46  1  0.24420556  0.50828821  0.69319188  1
  Cl  Cl47  1  0.80878911  0.49005673  0.74702744  1
