# generated using pymatgen
data_ZnCdH12C2(I3N)2
_symmetry_space_group_name_H-M   'P 1'
_cell_length_a   7.56087301
_cell_length_b   13.20796609
_cell_length_c   8.61913437
_cell_angle_alpha   90.62211352
_cell_angle_beta   89.99332620
_cell_angle_gamma   89.99682490
_symmetry_Int_Tables_number   1
_chemical_formula_structural   ZnCdH12C2(I3N)2
_chemical_formula_sum   'Zn2 Cd2 H24 C4 I12 N4'
_cell_volume   860.68837184
_cell_formula_units_Z   2
loop_
 _symmetry_equiv_pos_site_id
 _symmetry_equiv_pos_as_xyz
  1  'x, y, z'
loop_
 _atom_site_type_symbol
 _atom_site_label
 _atom_site_symmetry_multiplicity
 _atom_site_fract_x
 _atom_site_fract_y
 _atom_site_fract_z
 _atom_site_occupancy
  C  C0  1  0.39199348  0.24837688  0.36591757  1
  C  C1  1  0.89739941  0.24727805  0.13408759  1
  C  C2  1  0.60242290  0.74716500  0.63425136  1
  C  C3  1  0.10821251  0.74845325  0.86604437  1
  N  N4  1  0.52759509  0.26368304  0.48804445  1
  N  N5  1  0.03389164  0.26382170  0.01345801  1
  N  N6  1  0.46603537  0.76388996  0.51361721  1
  N  N7  1  0.97250972  0.76361859  0.98815884  1
  H  H8  1  0.45732967  0.24581830  0.25232388  1
  H  H9  1  0.32314283  0.17696603  0.38744898  1
  H  H10  1  0.29950796  0.31214709  0.37077411  1
  H  H11  1  0.62352921  0.20749953  0.48426650  1
  H  H12  1  0.59263349  0.33304424  0.47311028  1
  H  H13  1  0.47582713  0.26224369  0.60066813  1
  H  H14  1  0.96152919  0.24538745  0.24812803  1
  H  H15  1  0.82994471  0.17548245  0.10966639  1
  H  H16  1  0.80349669  0.31032782  0.13068339  1
  H  H17  1  0.13115949  0.20832338  0.01454935  1
  H  H18  1  0.09711900  0.33356567  0.03184752  1
  H  H19  1  0.98219546  0.26298577  0.90075915  1
  H  H20  1  0.53822953  0.74525091  0.74827523  1
  H  H21  1  0.66973572  0.67533329  0.60973732  1
  H  H22  1  0.69646783  0.81014398  0.63096408  1
  H  H23  1  0.40295468  0.83368291  0.53207128  1
  H  H24  1  0.36863639  0.70847914  0.51461148  1
  H  H25  1  0.51779923  0.76306365  0.40093119  1
  H  H26  1  0.04293415  0.74592482  0.75243262  1
  H  H27  1  0.20057427  0.81226761  0.87100308  1
  H  H28  1  0.17717736  0.67706394  0.88749729  1
  H  H29  1  0.90733547  0.83294693  0.97326758  1
  H  H30  1  0.87671333  0.70737601  0.98430729  1
  H  H31  1  0.02422835  0.76217866  0.10079259  1
  Zn  Zn32  1  0.56442209  0.94254567  0.10068774  1
  Zn  Zn33  1  0.93558068  0.44257931  0.60058188  1
  Cd  Cd34  1  0.06246247  0.95030090  0.39469436  1
  Cd  Cd35  1  0.43748766  0.45028834  0.89462892  1
  I  I36  1  0.48225006  0.24181113  0.88979241  1
  I  I37  1  0.23056153  0.01494452  0.11298181  1
  I  I38  1  0.70408433  0.01663911  0.36830657  1
  I  I39  1  0.97529011  0.24743255  0.61115116  1
  I  I40  1  0.27309082  0.99757078  0.64407084  1
  I  I41  1  0.76399994  0.99188442  0.87164373  1
  I  I42  1  0.52475133  0.74740289  0.11132896  1
  I  I43  1  0.73598614  0.49196091  0.37160538  1
  I  I44  1  0.22677761  0.49752266  0.14401195  1
  I  I45  1  0.01772397  0.74182642  0.38993781  1
  I  I46  1  0.26943164  0.51494027  0.61292181  1
  I  I47  1  0.79586208  0.51663866  0.86825515  1
