# generated using pymatgen
data_HgH10PdC2(N2Cl3)2
_symmetry_space_group_name_H-M   'P 1'
_cell_length_a   7.74500727
_cell_length_b   10.87830703
_cell_length_c   7.71998350
_cell_angle_alpha   89.94452263
_cell_angle_beta   90.00316714
_cell_angle_gamma   89.99741994
_symmetry_Int_Tables_number   1
_chemical_formula_structural   HgH10PdC2(N2Cl3)2
_chemical_formula_sum   'Hg2 H20 Pd2 C4 N8 Cl12'
_cell_volume   650.42812126
_cell_formula_units_Z   2
loop_
 _symmetry_equiv_pos_site_id
 _symmetry_equiv_pos_as_xyz
  1  'x, y, z'
loop_
 _atom_site_type_symbol
 _atom_site_label
 _atom_site_symmetry_multiplicity
 _atom_site_fract_x
 _atom_site_fract_y
 _atom_site_fract_z
 _atom_site_occupancy
  C  C0  1  0.49796489  0.29300589  0.49565594  1
  C  C1  1  0.99798678  0.20701375  0.00434366  1
  C  C2  1  0.50157833  0.79259351  0.50324098  1
  C  C3  1  0.00156268  0.70740288  0.99675659  1
  N  N4  1  0.60899185  0.23938264  0.59889922  1
  N  N5  1  0.38996022  0.23719102  0.39173838  1
  N  N6  1  0.10898316  0.26063202  0.90111681  1
  N  N7  1  0.88998607  0.26283013  0.10828906  1
  N  N8  1  0.60555171  0.73701999  0.61170870  1
  N  N9  1  0.39593816  0.73871878  0.39495462  1
  N  N10  1  0.10549168  0.76298401  0.88828476  1
  N  N11  1  0.89590620  0.76126744  0.10505566  1
  H  H12  1  0.49522488  0.39308230  0.49617961  1
  H  H13  1  0.68964343  0.29379489  0.67014808  1
  H  H14  1  0.61729917  0.14648543  0.61647654  1
  H  H15  1  0.30661204  0.29010110  0.32135971  1
  H  H16  1  0.38580543  0.14420620  0.37341296  1
  H  H17  1  0.99523380  0.10693325  0.00381666  1
  H  H18  1  0.18962893  0.20621877  0.82984738  1
  H  H19  1  0.11729526  0.35353202  0.88354684  1
  H  H20  1  0.80665956  0.20992119  0.17865821  1
  H  H21  1  0.88584578  0.35580610  0.12661795  1
  H  H22  1  0.50301680  0.89268643  0.50340762  1
  H  H23  1  0.67769867  0.79024290  0.69304996  1
  H  H24  1  0.62276506  0.64398841  0.61735956  1
  H  H25  1  0.32550024  0.79284354  0.31302907  1
  H  H26  1  0.37702599  0.64587335  0.38849972  1
  H  H27  1  0.00303414  0.60730486  0.99660619  1
  H  H28  1  0.17765085  0.70976592  0.80694918  1
  H  H29  1  0.12267237  0.85601426  0.88262757  1
  H  H30  1  0.82550864  0.70712862  0.18697610  1
  H  H31  1  0.87697061  0.85410441  0.11150446  1
  Pd  Pd32  1  0.49979104  0.00005797  0.99800682  1
  Pd  Pd33  1  0.99979508  0.49994045  0.50199406  1
  Hg  Hg34  1  0.00039140  0.99972973  0.49911144  1
  Hg  Hg35  1  0.50039408  0.50026297  0.00087350  1
  Cl  Cl36  1  0.50111894  0.28722611  0.99676930  1
  Cl  Cl37  1  0.26279556  0.98726656  0.18527419  1
  Cl  Cl38  1  0.68673767  0.01076048  0.23573384  1
  Cl  Cl39  1  0.00110473  0.21276659  0.50324691  1
  Cl  Cl40  1  0.31300153  0.01312760  0.76061498  1
  Cl  Cl41  1  0.73660245  0.98921015  0.81046712  1
  Cl  Cl42  1  0.49905432  0.71331460  0.00343482  1
  Cl  Cl43  1  0.76276558  0.51273305  0.31474087  1
  Cl  Cl44  1  0.18670224  0.48923818  0.26425513  1
  Cl  Cl45  1  0.99909306  0.78667852  0.49654306  1
  Cl  Cl46  1  0.23662949  0.51080535  0.68952215  1
  Cl  Cl47  1  0.81304879  0.48686866  0.73939881  1
