# generated using pymatgen
data_H10PdPtC2(N2Cl3)2
_symmetry_space_group_name_H-M   'P 1'
_cell_length_a   8.07266751
_cell_length_b   8.91217645
_cell_length_c   8.65873411
_cell_angle_alpha   89.90841311
_cell_angle_beta   90.02181508
_cell_angle_gamma   89.98081579
_symmetry_Int_Tables_number   1
_chemical_formula_structural   H10PdPtC2(N2Cl3)2
_chemical_formula_sum   'H20 Pd2 Pt2 C4 N8 Cl12'
_cell_volume   622.95207274
_cell_formula_units_Z   2
loop_
 _symmetry_equiv_pos_site_id
 _symmetry_equiv_pos_as_xyz
  1  'x, y, z'
loop_
 _atom_site_type_symbol
 _atom_site_label
 _atom_site_symmetry_multiplicity
 _atom_site_fract_x
 _atom_site_fract_y
 _atom_site_fract_z
 _atom_site_occupancy
  C  C0  1  0.47611995  0.30104316  0.48214990  1
  C  C1  1  0.97722356  0.19898106  0.01801079  1
  C  C2  1  0.52057499  0.80073297  0.51820894  1
  C  C3  1  0.01961499  0.69924881  0.98131221  1
  N  N4  1  0.55127498  0.24003159  0.60002850  1
  N  N5  1  0.39193659  0.23261830  0.37375696  1
  N  N6  1  0.05294394  0.25998695  0.90053277  1
  N  N7  1  0.89384460  0.26757278  0.12679101  1
  N  N8  1  0.60381466  0.73091330  0.62641748  1
  N  N9  1  0.45084509  0.74154651  0.39660489  1
  N  N10  1  0.10253478  0.76903126  0.87297388  1
  N  N11  1  0.95033416  0.75844614  0.10311033  1
  H  H12  1  0.48551822  0.42211198  0.47192553  1
  H  H13  1  0.61322289  0.30649957  0.67779859  1
  H  H14  1  0.55375955  0.12822800  0.62348064  1
  H  H15  1  0.33888909  0.29727843  0.28868382  1
  H  H16  1  0.37039843  0.12003196  0.36979149  1
  H  H17  1  0.98520277  0.07776705  0.02740840  1
  H  H18  1  0.11427054  0.19339673  0.82247411  1
  H  H19  1  0.05727645  0.37194330  0.87807223  1
  H  H20  1  0.83994177  0.20292624  0.21135613  1
  H  H21  1  0.87335412  0.38030629  0.13138993  1
  H  H22  1  0.50567935  0.92092468  0.53272273  1
  H  H23  1  0.65537422  0.79440044  0.71314291  1
  H  H24  1  0.62745793  0.61864376  0.62728892  1
  H  H25  1  0.38779771  0.80855857  0.31968991  1
  H  H26  1  0.45720230  0.63099592  0.36860281  1
  H  H27  1  0.00440879  0.57910810  0.96665808  1
  H  H28  1  0.15404666  0.70550707  0.78624850  1
  H  H29  1  0.12638660  0.88124713  0.87215719  1
  H  H30  1  0.88740825  0.69146440  0.18003369  1
  H  H31  1  0.95668201  0.86900347  0.13107007  1
  Pd  Pd32  1  0.50212412  0.98559305  0.99730351  1
  Pd  Pd33  1  0.00183570  0.51423647  0.50262386  1
  Pt  Pt34  1  0.00006453  0.01432109  0.50030821  1
  Pt  Pt35  1  0.50027406  0.48576525  0.99970693  1
  Cl  Cl36  1  0.42652559  0.23887844  0.95163753  1
  Cl  Cl37  1  0.27552487  0.96809725  0.16268442  1
  Cl  Cl38  1  0.77652351  0.99810947  0.33263395  1
  Cl  Cl39  1  0.92668578  0.26106536  0.55009572  1
  Cl  Cl40  1  0.22570609  0.03334059  0.66536565  1
  Cl  Cl41  1  0.72468735  0.00031777  0.82767874  1
  Cl  Cl42  1  0.57645302  0.73254707  0.04557589  1
  Cl  Cl43  1  0.77536525  0.53113818  0.33689118  1
  Cl  Cl44  1  0.27669024  0.50282804  0.16716997  1
  Cl  Cl45  1  0.07588551  0.76743787  0.45355017  1
  Cl  Cl46  1  0.22463576  0.50006692  0.67223413  1
  Cl  Cl47  1  0.72569800  0.46582422  0.83475156  1
