# generated using pymatgen
data_HfH10PdC2(N2Cl3)2
_symmetry_space_group_name_H-M   'P 1'
_cell_length_a   8.10930037
_cell_length_b   9.58008930
_cell_length_c   8.09523435
_cell_angle_alpha   90.39318056
_cell_angle_beta   90.00014178
_cell_angle_gamma   89.99632485
_symmetry_Int_Tables_number   1
_chemical_formula_structural   HfH10PdC2(N2Cl3)2
_chemical_formula_sum   'Hf2 H20 Pd2 C4 N8 Cl12'
_cell_volume   628.88631407
_cell_formula_units_Z   2
loop_
 _symmetry_equiv_pos_site_id
 _symmetry_equiv_pos_as_xyz
  1  'x, y, z'
loop_
 _atom_site_type_symbol
 _atom_site_label
 _atom_site_symmetry_multiplicity
 _atom_site_fract_x
 _atom_site_fract_y
 _atom_site_fract_z
 _atom_site_occupancy
  C  C0  1  0.49624145  0.29560023  0.49718261  1
  C  C1  1  0.99626277  0.20439858  0.00282287  1
  C  C2  1  0.50326181  0.79567805  0.50397970  1
  C  C3  1  0.00322673  0.70432761  0.99601557  1
  N  N4  1  0.59616946  0.23546657  0.60174195  1
  N  N5  1  0.40056399  0.23366949  0.38924707  1
  N  N6  1  0.09621585  0.26452376  0.89828383  1
  N  N7  1  0.90060257  0.26633769  0.11076497  1
  N  N8  1  0.60816908  0.73380347  0.60191361  1
  N  N9  1  0.39439304  0.73546526  0.40782964  1
  N  N10  1  0.10813803  0.76620304  0.89809186  1
  N  N11  1  0.89435095  0.76454130  0.09215862  1
  H  H12  1  0.49174767  0.40883964  0.50067911  1
  H  H13  1  0.66575502  0.29681781  0.67877491  1
  H  H14  1  0.61127285  0.13036570  0.61165104  1
  H  H15  1  0.32748153  0.29414684  0.31554982  1
  H  H16  1  0.39397691  0.12848906  0.37144058  1
  H  H17  1  0.99173085  0.09116098  0.99928982  1
  H  H18  1  0.16579097  0.20316422  0.82124099  1
  H  H19  1  0.11135595  0.36962224  0.88841181  1
  H  H20  1  0.82749681  0.20587039  0.18444503  1
  H  H21  1  0.89405416  0.37151657  0.12860608  1
  H  H22  1  0.50727451  0.90893168  0.50203739  1
  H  H23  1  0.68573734  0.79440490  0.67174455  1
  H  H24  1  0.61865605  0.62851146  0.61463248  1
  H  H25  1  0.32061743  0.79660605  0.33558789  1
  H  H26  1  0.37705978  0.63042044  0.39907367  1
  H  H27  1  0.00724509  0.59107580  0.99794829  1
  H  H28  1  0.18571575  0.70560211  0.82825800  1
  H  H29  1  0.11861164  0.87149750  0.88538131  1
  H  H30  1  0.82058298  0.70340455  0.16438843  1
  H  H31  1  0.87700798  0.86958480  0.10091446  1
  Pd  Pd32  1  0.50028865  0.00008561  0.00077581  1
  Pd  Pd33  1  0.00030108  0.49991560  0.49922668  1
  Hf  Hf34  1  0.00101888  0.99993927  0.49756443  1
  Hf  Hf35  1  0.50102380  0.50006298  0.00243550  1
  Cl  Cl36  1  0.50006946  0.24529015  0.99938708  1
  Cl  Cl37  1  0.17782656  0.98577062  0.24944157  1
  Cl  Cl38  1  0.75290533  0.01105991  0.31964281  1
  Cl  Cl39  1  0.00004666  0.25471146  0.50064299  1
  Cl  Cl40  1  0.24776115  0.01350083  0.67639301  1
  Cl  Cl41  1  0.82153592  0.98930790  0.74493476  1
  Cl  Cl42  1  0.50021110  0.75484948  0.00206507  1
  Cl  Cl43  1  0.67783070  0.51423536  0.25055865  1
  Cl  Cl44  1  0.25290736  0.48896399  0.18035695  1
  Cl  Cl45  1  0.00023654  0.74515232  0.49791523  1
  Cl  Cl46  1  0.32153076  0.51069052  0.75506871  1
  Cl  Cl47  1  0.74775838  0.48647919  0.82360757  1
