# generated using pymatgen
data_BaH10PdC2(N2Cl3)2
_symmetry_space_group_name_H-M   'P 1'
_cell_length_a   8.11063686
_cell_length_b   10.54897940
_cell_length_c   8.20476709
_cell_angle_alpha   89.89486349
_cell_angle_beta   80.70024324
_cell_angle_gamma   89.64398107
_symmetry_Int_Tables_number   1
_chemical_formula_structural   BaH10PdC2(N2Cl3)2
_chemical_formula_sum   'Ba2 H20 Pd2 C4 N8 Cl12'
_cell_volume   692.75087582
_cell_formula_units_Z   2
loop_
 _symmetry_equiv_pos_site_id
 _symmetry_equiv_pos_as_xyz
  1  'x, y, z'
loop_
 _atom_site_type_symbol
 _atom_site_label
 _atom_site_symmetry_multiplicity
 _atom_site_fract_x
 _atom_site_fract_y
 _atom_site_fract_z
 _atom_site_occupancy
  C  C0  1  0.49198747  0.29800045  0.49905039  1
  C  C1  1  0.00306290  0.20957855  0.00030685  1
  C  C2  1  0.49721355  0.79670338  0.48733804  1
  C  C3  1  0.99677359  0.70805691  0.01045254  1
  N  N4  1  0.60281353  0.24535870  0.57784199  1
  N  N5  1  0.41889870  0.24031502  0.38818622  1
  N  N6  1  0.12284756  0.25889029  0.89360350  1
  N  N7  1  0.90514221  0.26830191  0.12024990  1
  N  N8  1  0.56699230  0.74018783  0.60096798  1
  N  N9  1  0.38913618  0.74371546  0.40524757  1
  N  N10  1  0.09750213  0.76290891  0.89074122  1
  N  N11  1  0.87575543  0.76128768  0.11391019  1
  H  H12  1  0.45568126  0.39571945  0.53015681  1
  H  H13  1  0.66340392  0.29810852  0.65346833  1
  H  H14  1  0.63783385  0.15286295  0.55863153  1
  H  H15  1  0.32219015  0.28459011  0.34546778  1
  H  H16  1  0.45055549  0.15032951  0.34867376  1
  H  H17  1  0.98112817  0.10828380  0.98776568  1
  H  H18  1  0.18914522  0.19738452  0.80946843  1
  H  H19  1  0.15027928  0.35363411  0.88291519  1
  H  H20  1  0.81972756  0.21332598  0.19464921  1
  H  H21  1  0.91535603  0.36123605  0.15190704  1
  H  H22  1  0.53405690  0.89393225  0.45483376  1
  H  H23  1  0.64236466  0.79021895  0.66548213  1
  H  H24  1  0.53685832  0.64928847  0.63743558  1
  H  H25  1  0.35427816  0.79066282  0.30733190  1
  H  H26  1  0.34548640  0.65395932  0.42850783  1
  H  H27  1  0.01664005  0.60676388  0.02758447  1
  H  H28  1  0.18520695  0.70563938  0.82179237  1
  H  H29  1  0.10149327  0.85806119  0.86500546  1
  H  H30  1  0.80705513  0.70239115  0.19927915  1
  H  H31  1  0.83848922  0.85362280  0.10695521  1
  Pd  Pd32  1  0.50878123  0.99033537  0.98328773  1
  Pd  Pd33  1  -0.00021094  0.48967371  0.51037472  1
  Ba  Ba34  1  0.01563380  0.98804994  0.48136829  1
  Ba  Ba35  1  0.51675825  0.48783299  0.02503544  1
  Cl  Cl36  1  0.52567405  0.20918821  0.97598604  1
  Cl  Cl37  1  0.26076266  0.00185154  0.16984378  1
  Cl  Cl38  1  0.72760208  0.02813415  0.29677649  1
  Cl  Cl39  1  0.01063757  0.27119786  0.51903056  1
  Cl  Cl40  1  0.26541910  0.01167275  0.70085493  1
  Cl  Cl41  1  0.75864099  0.97430069  0.79853791  1
  Cl  Cl42  1  0.49171767  0.77193691  0.99829248  1
  Cl  Cl43  1  0.70635474  0.51833879  0.29592678  1
  Cl  Cl44  1  0.18590269  0.48573638  0.26053794  1
  Cl  Cl45  1  0.98781170  0.70884395  0.50474277  1
  Cl  Cl46  1  0.30624762  0.52052487  0.75486680  1
  Cl  Cl47  1  0.81693058  0.48912457  0.75943408  1
