# generated using pymatgen
data_CdH10PdC2(N2Cl3)2
_symmetry_space_group_name_H-M   'P 1'
_cell_length_a   8.02168852
_cell_length_b   10.31816716
_cell_length_c   7.59274616
_cell_angle_alpha   89.78143462
_cell_angle_beta   89.98047832
_cell_angle_gamma   90.00254161
_symmetry_Int_Tables_number   1
_chemical_formula_structural   CdH10PdC2(N2Cl3)2
_chemical_formula_sum   'Cd2 H20 Pd2 C4 N8 Cl12'
_cell_volume   628.44033165
_cell_formula_units_Z   2
loop_
 _symmetry_equiv_pos_site_id
 _symmetry_equiv_pos_as_xyz
  1  'x, y, z'
loop_
 _atom_site_type_symbol
 _atom_site_label
 _atom_site_symmetry_multiplicity
 _atom_site_fract_x
 _atom_site_fract_y
 _atom_site_fract_z
 _atom_site_occupancy
  C  C0  1  0.49697660  0.29184144  0.49619589  1
  C  C1  1  0.99699959  0.20818435  0.00381651  1
  C  C2  1  0.50168199  0.79145359  0.50318648  1
  C  C3  1  0.00162973  0.70855059  0.99682776  1
  N  N4  1  0.61114444  0.23564725  0.59278325  1
  N  N5  1  0.38736547  0.23319962  0.39695901  1
  N  N6  1  0.11121093  0.26436071  0.90717280  1
  N  N7  1  0.88737627  0.26681610  0.10307464  1
  N  N8  1  0.61385594  0.73353279  0.60054582  1
  N  N9  1  0.38806397  0.73452345  0.40708934  1
  N  N10  1  0.11385252  0.76649105  0.89945229  1
  N  N11  1  0.88795877  0.76546300  0.09293329  1
  H  H12  1  0.49263561  0.39717019  0.49848601  1
  H  H13  1  0.69052057  0.29248516  0.66426353  1
  H  H14  1  0.62172428  0.13779715  0.60726285  1
  H  H15  1  0.30358989  0.28855601  0.32855170  1
  H  H16  1  0.38353097  0.13546790  0.37916805  1
  H  H17  1  0.99265312  0.10283297  0.00153398  1
  H  H18  1  0.19060607  0.20749593  0.83570770  1
  H  H19  1  0.12182627  0.36219602  0.89270702  1
  H  H20  1  0.80355901  0.21146278  0.17149052  1
  H  H21  1  0.88351036  0.36454928  0.12084387  1
  H  H22  1  0.50292121  0.89688833  0.50216746  1
  H  H23  1  0.69419158  0.78933160  0.67196098  1
  H  H24  1  0.62833796  0.63556243  0.60890570  1
  H  H25  1  0.30945587  0.79073694  0.33352639  1
  H  H26  1  0.37255052  0.63668051  0.39990314  1
  H  H27  1  0.00289729  0.60311566  0.99783174  1
  H  H28  1  0.19424979  0.71069895  0.82805746  1
  H  H29  1  0.12833442  0.86446425  0.89112352  1
  H  H30  1  0.80930514  0.70922375  0.16646883  1
  H  H31  1  0.87238675  0.86330003  0.10011366  1
  Pd  Pd32  1  0.50025569  0.01536426  0.99914135  1
  Pd  Pd33  1  0.00028078  0.48463366  0.50085336  1
  Cd  Cd34  1  0.00042605  -0.00514357  0.49832800  1
  Cd  Cd35  1  0.50030561  0.50511044  0.00176355  1
  Cl  Cl36  1  0.50205095  0.24282072  0.99534096  1
  Cl  Cl37  1  0.18290090  0.98023935  0.25148383  1
  Cl  Cl38  1  0.68317117  0.01733295  0.24297623  1
  Cl  Cl39  1  0.00199072  0.25717716  0.50463936  1
  Cl  Cl40  1  0.31711584  0.01847458  0.75560979  1
  Cl  Cl41  1  0.81668273  0.98189426  0.74477030  1
  Cl  Cl42  1  0.49901218  0.78992842  0.00231738  1
  Cl  Cl43  1  0.68282275  0.51975207  0.24848637  1
  Cl  Cl44  1  0.18324514  0.48266820  0.25692033  1
  Cl  Cl45  1  0.99905874  0.71006906  0.49766510  1
  Cl  Cl46  1  0.31673553  0.51813603  0.75527896  1
  Cl  Cl47  1  0.81706161  0.48152558  0.74441869  1
