# generated using pymatgen
data_AgBiH10C2(N2Cl3)2
_symmetry_space_group_name_H-M   'P 1'
_cell_length_a   7.93368694
_cell_length_b   10.49443702
_cell_length_c   7.92207654
_cell_angle_alpha   90.12230825
_cell_angle_beta   89.99874695
_cell_angle_gamma   89.99784957
_symmetry_Int_Tables_number   1
_chemical_formula_structural   AgBiH10C2(N2Cl3)2
_chemical_formula_sum   'Ag2 Bi2 H20 C4 N8 Cl12'
_cell_volume   659.58724548
_cell_formula_units_Z   2
loop_
 _symmetry_equiv_pos_site_id
 _symmetry_equiv_pos_as_xyz
  1  'x, y, z'
loop_
 _atom_site_type_symbol
 _atom_site_label
 _atom_site_symmetry_multiplicity
 _atom_site_fract_x
 _atom_site_fract_y
 _atom_site_fract_z
 _atom_site_occupancy
  C  C0  1  0.49444840  0.29300352  0.49670385  1
  C  C1  1  0.99450057  0.20699119  0.00329843  1
  C  C2  1  0.50521141  0.79298459  0.50352283  1
  C  C3  1  0.00517189  0.70702412  0.99644981  1
  N  N4  1  0.59994359  0.23693553  0.59957388  1
  N  N5  1  0.39310832  0.23602738  0.39040357  1
  N  N6  1  0.10002275  0.26305259  0.90046707  1
  N  N7  1  0.89314531  0.26397377  0.10960668  1
  N  N8  1  0.60845571  0.73596483  0.60766900  1
  N  N9  1  0.39814165  0.73694006  0.40200362  1
  N  N10  1  0.10840035  0.76405101  0.89234506  1
  N  N11  1  0.89805379  0.76305454  0.09797957  1
  H  H12  1  0.49031192  0.39664668  0.50017110  1
  H  H13  1  0.67413552  0.29223321  0.67553878  1
  H  H14  1  0.61203639  0.14057148  0.60979297  1
  H  H15  1  0.31553388  0.29115103  0.31782405  1
  H  H16  1  0.38739741  0.13976200  0.37361543  1
  H  H17  1  0.99033845  0.10334955  0.99980458  1
  H  H18  1  0.17421850  0.20775641  0.82449571  1
  H  H19  1  0.11214340  0.35942251  0.89027917  1
  H  H20  1  0.81554732  0.20884773  0.18215562  1
  H  H21  1  0.88745024  0.36022993  0.12641434  1
  H  H22  1  0.50903394  0.89663308  0.50092686  1
  H  H23  1  0.68479898  0.79116512  0.68172226  1
  H  H24  1  0.61940145  0.63953586  0.61861605  1
  H  H25  1  0.32545025  0.79214412  0.32477119  1
  H  H26  1  0.38167046  0.64072025  0.39561146  1
  H  H27  1  0.00899695  0.60337120  0.99904912  1
  H  H28  1  0.18478271  0.70885596  0.81828584  1
  H  H29  1  0.11934322  0.86047845  0.88140182  1
  H  H30  1  0.82536982  0.70784565  0.17518967  1
  H  H31  1  0.88156717  0.85927659  0.10437228  1
  Ag  Ag32  1  0.50060492  0.99996198  0.99763452  1
  Ag  Ag33  1  0.00062651  0.50005001  0.50239489  1
  Bi  Bi34  1  0.00098802  0.00003424  0.49757836  1
  Bi  Bi35  1  0.50098735  0.49997696  0.00242600  1
  Cl  Cl36  1  0.49832953  0.24251177  0.99623930  1
  Cl  Cl37  1  0.21264398  0.98477109  0.22582605  1
  Cl  Cl38  1  0.72750091  0.01428146  0.28592964  1
  Cl  Cl39  1  0.99827989  0.25749830  0.50379808  1
  Cl  Cl40  1  0.27144645  0.01534467  0.71059521  1
  Cl  Cl41  1  0.78814112  0.98553086  0.77004047  1
  Cl  Cl42  1  0.50130088  0.75744916  0.00376849  1
  Cl  Cl43  1  0.71262727  0.51523221  0.27417714  1
  Cl  Cl44  1  0.22748618  0.48573257  0.21407062  1
  Cl  Cl45  1  0.00134537  0.74256202  0.49619404  1
  Cl  Cl46  1  0.28814198  0.51447748  0.72997222  1
  Cl  Cl47  1  0.77143723  0.48464829  0.78939805  1
