# generated using pymatgen
data_AgH10AuC2(N2Cl3)2
_symmetry_space_group_name_H-M   'P 1'
_cell_length_a   7.43520855
_cell_length_b   10.38760817
_cell_length_c   8.29280369
_cell_angle_alpha   90.14114190
_cell_angle_beta   89.99997153
_cell_angle_gamma   89.99957575
_symmetry_Int_Tables_number   1
_chemical_formula_structural   AgH10AuC2(N2Cl3)2
_chemical_formula_sum   'Ag2 H20 Au2 C4 N8 Cl12'
_cell_volume   640.48473074
_cell_formula_units_Z   2
loop_
 _symmetry_equiv_pos_site_id
 _symmetry_equiv_pos_as_xyz
  1  'x, y, z'
loop_
 _atom_site_type_symbol
 _atom_site_label
 _atom_site_symmetry_multiplicity
 _atom_site_fract_x
 _atom_site_fract_y
 _atom_site_fract_z
 _atom_site_occupancy
  C  C0  1  0.49725528  0.28789377  0.49757798  1
  C  C1  1  0.99714958  0.21213523  0.00246155  1
  C  C2  1  0.50347910  0.79089456  0.50294528  1
  C  C3  1  0.00348588  0.70907663  0.99703457  1
  N  N4  1  0.58554988  0.23211788  0.61479746  1
  N  N5  1  0.41158176  0.22952744  0.38046570  1
  N  N6  1  0.08549075  0.26789238  0.88525943  1
  N  N7  1  0.91151732  0.27052044  0.11958704  1
  N  N8  1  0.58891398  0.73246883  0.61977302  1
  N  N9  1  0.41365727  0.73551619  0.38613562  1
  N  N10  1  0.08891682  0.76750442  0.88018709  1
  N  N11  1  0.91366419  0.76445404  0.11382914  1
  H  H12  1  0.49469376  0.39272872  0.49748651  1
  H  H13  1  0.65015465  0.28866270  0.69743391  1
  H  H14  1  0.59876645  0.13492519  0.62802481  1
  H  H15  1  0.34488868  0.28436458  0.29773597  1
  H  H16  1  0.40246877  0.13202502  0.36709232  1
  H  H17  1  0.99448870  0.10730084  0.00252468  1
  H  H18  1  0.15006062  0.21133619  0.80260669  1
  H  H19  1  0.09878924  0.36508055  0.87206146  1
  H  H20  1  0.84478806  0.21569876  0.20230397  1
  H  H21  1  0.90248381  0.36802538  0.13298711  1
  H  H22  1  0.50776399  0.89563244  0.50306222  1
  H  H23  1  0.65698346  0.78753828  0.70224613  1
  H  H24  1  0.59243200  0.63496641  0.63236642  1
  H  H25  1  0.34893087  0.79250503  0.30374440  1
  H  H26  1  0.40284548  0.63819276  0.37371235  1
  H  H27  1  0.00779696  0.60434076  0.99692216  1
  H  H28  1  0.15699169  0.71243203  0.79772966  1
  H  H29  1  0.09241257  0.86500175  0.86758846  1
  H  H30  1  0.84893940  0.70746405  0.19623309  1
  H  H31  1  0.90282748  0.86178051  0.12624783  1
  Ag  Ag32  1  0.49980269  0.98148662  0.99842985  1
  Ag  Ag33  1  0.99982728  0.51852367  0.50155981  1
  Au  Au34  1  0.00011765  0.02014325  0.49861358  1
  Au  Au35  1  0.50010991  0.47986605  0.00137432  1
  Cl  Cl36  1  0.49920314  0.25312616  0.99867464  1
  Cl  Cl37  1  0.25794497  0.97837102  0.18359561  1
  Cl  Cl38  1  0.75986174  0.02052686  0.31474298  1
  Cl  Cl39  1  0.99923815  0.24688158  0.50132784  1
  Cl  Cl40  1  0.24073024  0.02089420  0.68192303  1
  Cl  Cl41  1  0.74224555  0.97963245  0.81365472  1
  Cl  Cl42  1  0.49997034  0.70626666  0.00268325  1
  Cl  Cl43  1  0.75795103  0.52165786  0.31641099  1
  Cl  Cl44  1  0.25985559  0.47947832  0.18524887  1
  Cl  Cl45  1  -0.00002165  0.79374397  0.49729493  1
  Cl  Cl46  1  0.24227589  0.52034451  0.68632433  1
  Cl  Cl47  1  0.74073838  0.47911604  0.81808196  1
