# generated using pymatgen
data_AgSbH10C2(N2Cl3)2
_symmetry_space_group_name_H-M   'P 1'
_cell_length_a   7.92749559
_cell_length_b   10.37429646
_cell_length_c   7.91731000
_cell_angle_alpha   90.21762011
_cell_angle_beta   90.00075709
_cell_angle_gamma   89.99683533
_symmetry_Int_Tables_number   1
_chemical_formula_structural   AgSbH10C2(N2Cl3)2
_chemical_formula_sum   'Ag2 Sb2 H20 C4 N8 Cl12'
_cell_volume   651.13221138
_cell_formula_units_Z   2
loop_
 _symmetry_equiv_pos_site_id
 _symmetry_equiv_pos_as_xyz
  1  'x, y, z'
loop_
 _atom_site_type_symbol
 _atom_site_label
 _atom_site_symmetry_multiplicity
 _atom_site_fract_x
 _atom_site_fract_y
 _atom_site_fract_z
 _atom_site_occupancy
  C  C0  1  0.49510238  0.29330906  0.49689876  1
  C  C1  1  0.99515365  0.20669182  0.00309632  1
  C  C2  1  0.50478708  0.79327887  0.50337501  1
  C  C3  1  0.00473397  0.70672843  0.99661871  1
  N  N4  1  0.60014727  0.23675866  0.60030914  1
  N  N5  1  0.39390979  0.23573446  0.39021963  1
  N  N6  1  0.10021082  0.26323613  0.89973157  1
  N  N7  1  0.89395144  0.26425889  0.10978710  1
  N  N8  1  0.60833717  0.73559678  0.60706099  1
  N  N9  1  0.39721970  0.73686098  0.40191310  1
  N  N10  1  0.10829005  0.76440339  0.89294615  1
  N  N11  1  0.89714942  0.76314717  0.09806270  1
  H  H12  1  0.49124087  0.39811953  0.50020487  1
  H  H13  1  0.67311799  0.29305490  0.67720962  1
  H  H14  1  0.61408858  0.13935420  0.60969686  1
  H  H15  1  0.31766059  0.29182012  0.31664322  1
  H  H16  1  0.38605817  0.13833872  0.37462227  1
  H  H17  1  0.99126260  0.10187833  0.99976317  1
  H  H18  1  0.17318520  0.20693718  0.82281460  1
  H  H19  1  0.11418015  0.36063974  0.89036979  1
  H  H20  1  0.81768585  0.20818342  0.18333053  1
  H  H21  1  0.88611979  0.36166141  0.12540682  1
  H  H22  1  0.50874368  0.89809612  0.50109908  1
  H  H23  1  0.68567407  0.79163442  0.68009447  1
  H  H24  1  0.61805714  0.63813156  0.61974590  1
  H  H25  1  0.32367499  0.79317939  0.32613004  1
  H  H26  1  0.38168334  0.63950558  0.39305045  1
  H  H27  1  0.00870762  0.60190834  0.99888809  1
  H  H28  1  0.18564016  0.70838170  0.81992635  1
  H  H29  1  0.11799520  0.86188372  0.88027197  1
  H  H30  1  0.82360516  0.70681626  0.17384310  1
  H  H31  1  0.88159472  0.86049066  0.10693234  1
  Ag  Ag32  1  0.50351418  0.99997146  0.99871984  1
  Ag  Ag33  1  0.00354715  0.50003643  0.50130759  1
  Sb  Sb34  1  0.00089792  0.00002155  0.49757865  1
  Sb  Sb35  1  0.50089948  0.49998568  0.00242333  1
  Cl  Cl36  1  0.49827326  0.24490372  0.99689447  1
  Cl  Cl37  1  0.20943856  0.98511621  0.23250359  1
  Cl  Cl38  1  0.73313229  0.01298043  0.28724077  1
  Cl  Cl39  1  0.99823071  0.25510470  0.50314240  1
  Cl  Cl40  1  0.26433552  0.01465331  0.70670938  1
  Cl  Cl41  1  0.79015041  0.98711424  0.76385798  1
  Cl  Cl42  1  0.50078328  0.75499508  0.00293437  1
  Cl  Cl43  1  0.70943106  0.51488326  0.26750056  1
  Cl  Cl44  1  0.23312951  0.48703569  0.21275493  1
  Cl  Cl45  1  0.00083000  0.74501421  0.49703525  1
  Cl  Cl46  1  0.29013497  0.51289231  0.73614566  1
  Cl  Cl47  1  0.76432244  0.48533473  0.79329328  1
