# generated using pymatgen
data_InAgH10C2(N2Cl3)2
_symmetry_space_group_name_H-M   'P 1'
_cell_length_a   7.88524996
_cell_length_b   10.17955101
_cell_length_c   7.87024143
_cell_angle_alpha   90.29080359
_cell_angle_beta   89.99456161
_cell_angle_gamma   89.99829264
_symmetry_Int_Tables_number   1
_chemical_formula_structural   InAgH10C2(N2Cl3)2
_chemical_formula_sum   'In2 Ag2 H20 C4 N8 Cl12'
_cell_volume   631.72279371
_cell_formula_units_Z   2
loop_
 _symmetry_equiv_pos_site_id
 _symmetry_equiv_pos_as_xyz
  1  'x, y, z'
loop_
 _atom_site_type_symbol
 _atom_site_label
 _atom_site_symmetry_multiplicity
 _atom_site_fract_x
 _atom_site_fract_y
 _atom_site_fract_z
 _atom_site_occupancy
  C  C0  1  0.49707705  0.29321479  0.49706176  1
  C  C1  1  0.99708526  0.20678419  0.00294786  1
  C  C2  1  0.50326718  0.79330674  0.50372759  1
  C  C3  1  0.00322471  0.70669658  0.99627562  1
  N  N4  1  0.60095391  0.23558328  0.60248691  1
  N  N5  1  0.39579463  0.23456614  0.38934312  1
  N  N6  1  0.10099834  0.26440959  0.89752044  1
  N  N7  1  0.89581397  0.26544332  0.11068492  1
  N  N8  1  0.60862474  0.73452514  0.60653358  1
  N  N9  1  0.39420919  0.73583209  0.40276494  1
  N  N10  1  0.10860589  0.76548789  0.89344258  1
  N  N11  1  0.89416810  0.76416653  0.09723368  1
  H  H12  1  0.49451622  0.40001299  0.49919514  1
  H  H13  1  0.67296006  0.29271787  0.68161100  1
  H  H14  1  0.61647897  0.13639256  0.61042114  1
  H  H15  1  0.32149066  0.29140094  0.31278400  1
  H  H16  1  0.38427154  0.13520484  0.37708463  1
  H  H17  1  0.99449156  0.09998869  0.00078415  1
  H  H18  1  0.17298584  0.20726464  0.81837585  1
  H  H19  1  0.11655585  0.36359480  0.88960940  1
  H  H20  1  0.82148522  0.20861257  0.18724125  1
  H  H21  1  0.88431364  0.36480515  0.12296788  1
  H  H22  1  0.50678544  0.90008130  0.50201488  1
  H  H23  1  0.68852608  0.79119666  0.67820075  1
  H  H24  1  0.61602128  0.63524791  0.62143274  1
  H  H25  1  0.31791215  0.79305785  0.32867094  1
  H  H26  1  0.38140027  0.63657974  0.39060283  1
  H  H27  1  0.00676327  0.59992331  0.99797152  1
  H  H28  1  0.18851744  0.70881547  0.82178161  1
  H  H29  1  0.11598677  0.86475906  0.87855636  1
  H  H30  1  0.81786107  0.70693621  0.17133774  1
  H  H31  1  0.88134072  0.86342159  0.10941400  1
  Ag  Ag32  1  0.49718742  0.99996567  0.99359925  1
  Ag  Ag33  1  0.99723510  0.50003999  0.50643142  1
  In  In34  1  0.00042374  0.99997791  0.49738395  1
  In  In35  1  0.50042849  0.50002682  0.00261702  1
  Cl  Cl36  1  0.50033068  0.24525351  0.99841697  1
  Cl  Cl37  1  0.19874920  0.98522347  0.24096484  1
  Cl  Cl38  1  0.74406172  0.01211936  0.29921307  1
  Cl  Cl39  1  0.00029768  0.25474995  0.50160598  1
  Cl  Cl40  1  0.25695931  0.01425161  0.69660006  1
  Cl  Cl41  1  0.80187722  0.98820431  0.75441207  1
  Cl  Cl42  1  0.50015700  0.75482832  0.00331558  1
  Cl  Cl43  1  0.69872132  0.51478473  0.25901414  1
  Cl  Cl44  1  0.24404377  0.48789668  0.20081682  1
  Cl  Cl45  1  0.00018487  0.74517537  0.49665531  1
  Cl  Cl46  1  0.30189975  0.51179420  0.74561246  1
  Cl  Cl47  1  0.75697503  0.48574064  0.80336500  1
