# generated using pymatgen
data_CdH10PbC2(N2Cl3)2
_symmetry_space_group_name_H-M   'P 1'
_cell_length_a   7.85333532
_cell_length_b   10.70375320
_cell_length_c   7.83859510
_cell_angle_alpha   89.90284045
_cell_angle_beta   90.00043457
_cell_angle_gamma   89.99942315
_symmetry_Int_Tables_number   1
_chemical_formula_structural   CdH10PbC2(N2Cl3)2
_chemical_formula_sum   'Cd2 H20 Pb2 C4 N8 Cl12'
_cell_volume   658.91263530
_cell_formula_units_Z   2
loop_
 _symmetry_equiv_pos_site_id
 _symmetry_equiv_pos_as_xyz
  1  'x, y, z'
loop_
 _atom_site_type_symbol
 _atom_site_label
 _atom_site_symmetry_multiplicity
 _atom_site_fract_x
 _atom_site_fract_y
 _atom_site_fract_z
 _atom_site_occupancy
  C  C0  1  0.49481751  0.29262604  0.49629669  1
  C  C1  1  0.99483348  0.20735689  0.00373541  1
  C  C2  1  0.50504873  0.79262522  0.50341081  1
  C  C3  1  0.00499663  0.70735768  0.99658401  1
  N  N4  1  0.60254862  0.23718706  0.59885224  1
  N  N5  1  0.39133982  0.23704861  0.38977139  1
  N  N6  1  0.10261078  0.26281642  0.90118919  1
  N  N7  1  0.89136565  0.26294666  0.11025021  1
  N  N8  1  0.60848763  0.73705333  0.61008733  1
  N  N9  1  0.39793263  0.73718670  0.40035375  1
  N  N10  1  0.10847455  0.76298377  0.88988307  1
  N  N11  1  0.89787296  0.76282201  0.09960717  1
  H  H12  1  0.49055320  0.39428836  0.50014016  1
  H  H13  1  0.67924085  0.29107222  0.67404813  1
  H  H14  1  0.61240375  0.14258461  0.61100654  1
  H  H15  1  0.31076797  0.29128940  0.31886469  1
  H  H16  1  0.38780187  0.14278946  0.37081690  1
  H  H17  1  0.99055812  0.10570761  0.99985538  1
  H  H18  1  0.17928755  0.20891874  0.82600117  1
  H  H19  1  0.11248396  0.35740227  0.88907237  1
  H  H20  1  0.81076787  0.20870599  0.18113267  1
  H  H21  1  0.88784408  0.35719833  0.12921825  1
  H  H22  1  0.50862616  0.89432377  0.49976467  1
  H  H23  1  0.68338937  0.79140601  0.68660929  1
  H  H24  1  0.62168155  0.64244380  0.61983258  1
  H  H25  1  0.32612059  0.79097573  0.32012829  1
  H  H26  1  0.37933942  0.64291916  0.39746331  1
  H  H27  1  0.00860528  0.60568788  0.00021369  1
  H  H28  1  0.18337763  0.70861860  0.81339705  1
  H  H29  1  0.12163356  0.85756406  0.88017202  1
  H  H30  1  0.82606539  0.70900902  0.17982955  1
  H  H31  1  0.87926022  0.85706881  0.10250162  1
  Cd  Cd32  1  0.49953588  0.99999334  0.99692118  1
  Cd  Cd33  1  0.99954304  0.50002050  0.50308543  1
  Pb  Pb34  1  0.00099597  0.00002787  0.49672505  1
  Pb  Pb35  1  0.50099900  0.49998657  0.00327476  1
  Cl  Cl36  1  0.49934694  0.23745403  0.99514273  1
  Cl  Cl37  1  0.22761647  0.98481707  0.21004509  1
  Cl  Cl38  1  0.71074060  0.01487193  0.27144518  1
  Cl  Cl39  1  0.99931546  0.26255963  0.50490232  1
  Cl  Cl40  1  0.28709455  0.01494632  0.72553047  1
  Cl  Cl41  1  0.77325898  0.98543583  0.78631593  1
  Cl  Cl42  1  0.50136418  0.76257640  0.00387195  1
  Cl  Cl43  1  0.72760771  0.51518955  0.28996666  1
  Cl  Cl44  1  0.21073076  0.48512366  0.22854664  1
  Cl  Cl45  1  0.00140129  0.73743628  0.49608135  1
  Cl  Cl46  1  0.27325436  0.51457239  0.71369467  1
  Cl  Cl47  1  0.78707678  0.48506738  0.77446573  1
