# generated using pymatgen
data_ZnH12PdC2(I3N)2
_symmetry_space_group_name_H-M   'P 1'
_cell_length_a   7.75079140
_cell_length_b   11.94089905
_cell_length_c   8.70444077
_cell_angle_alpha   93.15272420
_cell_angle_beta   89.99470742
_cell_angle_gamma   90.00018019
_symmetry_Int_Tables_number   1
_chemical_formula_structural   ZnH12PdC2(I3N)2
_chemical_formula_sum   'Zn2 H24 Pd2 C4 I12 N4'
_cell_volume   804.38902900
_cell_formula_units_Z   2
loop_
 _symmetry_equiv_pos_site_id
 _symmetry_equiv_pos_as_xyz
  1  'x, y, z'
loop_
 _atom_site_type_symbol
 _atom_site_label
 _atom_site_symmetry_multiplicity
 _atom_site_fract_x
 _atom_site_fract_y
 _atom_site_fract_z
 _atom_site_occupancy
  C  C0  1  0.42562153  0.24926739  0.38597523  1
  C  C1  1  0.92814319  0.24479182  0.11234451  1
  C  C2  1  0.57166940  0.74470973  0.61249536  1
  C  C3  1  0.07453391  0.74932199  0.88608432  1
  N  N4  1  0.52681306  0.26229752  0.53052537  1
  N  N5  1  0.02973787  0.25151876  0.96886646  1
  N  N6  1  0.47018072  0.75157147  0.46899763  1
  N  N7  1  0.97330688  0.76225685  0.03064175  1
  H  H8  1  0.51499091  0.24772674  0.28844565  1
  H  H9  1  0.35379385  0.17044293  0.38624384  1
  H  H10  1  0.33810996  0.32088704  0.38044162  1
  H  H11  1  0.61684307  0.19844617  0.53720406  1
  H  H12  1  0.59525733  0.33708190  0.53343876  1
  H  H13  1  0.45204398  0.26253738  0.62986926  1
  H  H14  1  0.01729583  0.24853218  0.21001254  1
  H  H15  1  0.85614246  0.16587220  0.10768219  1
  H  H16  1  0.83957182  0.31615676  0.12159560  1
  H  H17  1  0.11984150  0.18722275  0.95800250  1
  H  H18  1  0.09812291  0.32693629  0.97272064  1
  H  H19  1  0.95398430  0.24736963  0.87043676  1
  H  H20  1  0.48245782  0.74846762  0.71013543  1
  H  H21  1  0.64353321  0.66573760  0.60779072  1
  H  H22  1  0.66035944  0.81600891  0.62183553  1
  H  H23  1  0.40193467  0.82704509  0.47289128  1
  H  H24  1  0.37996170  0.68734912  0.45806092  1
  H  H25  1  0.54599095  0.74740082  0.37059139  1
  H  H26  1  0.98518252  0.74778633  0.78855658  1
  H  H27  1  0.16197953  0.82098147  0.88060619  1
  H  H28  1  0.14643278  0.67052257  0.88629620  1
  H  H29  1  0.90474888  0.83699612  0.03359741  1
  H  H30  1  0.88338111  0.69834112  0.03729196  1
  H  H31  1  0.04806522  0.76252074  0.12998077  1
  Zn  Zn32  1  0.54932109  0.95824148  0.05991104  1
  Zn  Zn33  1  0.95065831  0.45827571  0.55991215  1
  Pd  Pd34  1  0.00302637  0.99903507  0.48099673  1
  Pd  Pd35  1  0.49697358  0.49904124  0.98098280  1
  I  I36  1  0.48514328  0.28004081  0.93584405  1
  I  I37  1  0.23793507  0.00962713  0.12762457  1
  I  I38  1  0.69485279  0.00127644  0.34378986  1
  I  I39  1  0.98272701  0.22158487  0.56101968  1
  I  I40  1  0.28529901  0.99697488  0.64818401  1
  I  I41  1  0.76207589  0.99620416  0.84782576  1
  I  I42  1  0.51734736  0.72156885  0.06118089  1
  I  I43  1  0.73792974  0.49624150  0.34784239  1
  I  I44  1  0.21466987  0.49692757  0.14815646  1
  I  I45  1  0.01479294  0.78002553  0.43598008  1
  I  I46  1  0.26205522  0.50959504  0.62758281  1
  I  I47  1  0.80518389  0.50131294  0.84380486  1
