# generated using pymatgen
data_CdHgH10C2(N2Cl3)2
_symmetry_space_group_name_H-M   'P 1'
_cell_length_a   7.85185832
_cell_length_b   10.51089097
_cell_length_c   7.83681256
_cell_angle_alpha   90.00977161
_cell_angle_beta   90.00038779
_cell_angle_gamma   89.99734947
_symmetry_Int_Tables_number   1
_chemical_formula_structural   CdHgH10C2(N2Cl3)2
_chemical_formula_sum   'Cd2 Hg2 H20 C4 N8 Cl12'
_cell_volume   646.77233913
_cell_formula_units_Z   2
loop_
 _symmetry_equiv_pos_site_id
 _symmetry_equiv_pos_as_xyz
  1  'x, y, z'
loop_
 _atom_site_type_symbol
 _atom_site_label
 _atom_site_symmetry_multiplicity
 _atom_site_fract_x
 _atom_site_fract_y
 _atom_site_fract_z
 _atom_site_occupancy
  C  C0  1  0.49589708  0.29229634  0.49615675  1
  C  C1  1  0.99592875  0.20770180  0.00385456  1
  C  C2  1  0.50429300  0.79225942  0.50381228  1
  C  C3  1  0.00425445  0.70774365  0.99616937  1
  N  N4  1  0.60421817  0.23630458  0.59855413  1
  N  N5  1  0.39087052  0.23555231  0.39110641  1
  N  N6  1  0.10426810  0.26368780  0.90148546  1
  N  N7  1  0.89090780  0.26444733  0.10891125  1
  N  N8  1  0.60690333  0.73542009  0.61111837  1
  N  N9  1  0.39802154  0.73638923  0.39917819  1
  N  N10  1  0.10685680  0.76459351  0.88887528  1
  N  N11  1  0.89795981  0.76360898  0.10080484  1
  H  H12  1  0.49259990  0.39583286  0.49874180  1
  H  H13  1  0.68043751  0.29225639  0.67327422  1
  H  H14  1  0.61545520  0.14004798  0.61081555  1
  H  H15  1  0.31160762  0.29137820  0.31942246  1
  H  H16  1  0.38452422  0.13936062  0.37422290  1
  H  H17  1  0.99260770  0.10416668  0.00123967  1
  H  H18  1  0.18047922  0.20773248  0.82675045  1
  H  H19  1  0.11552626  0.35994605  0.88924855  1
  H  H20  1  0.81162583  0.20862811  0.18057146  1
  H  H21  1  0.88457422  0.36063893  0.12581697  1
  H  H22  1  0.50785390  0.89579418  0.50126913  1
  H  H23  1  0.68196101  0.79128554  0.68718283  1
  H  H24  1  0.61903671  0.63907908  0.62198188  1
  H  H25  1  0.32612616  0.79231561  0.32024952  1
  H  H26  1  0.38072693  0.64029126  0.39278020  1
  H  H27  1  0.00783517  0.60421120  0.99870519  1
  H  H28  1  0.18193406  0.70873542  0.81281899  1
  H  H29  1  0.11897285  0.86093429  0.87802641  1
  H  H30  1  0.82607890  0.70767382  0.17972514  1
  H  H31  1  0.88064792  0.85970436  0.10720821  1
  Cd  Cd32  1  0.49964581  0.99998095  0.99739185  1
  Cd  Cd33  1  0.99964750  0.50002748  0.50261315  1
  Hg  Hg34  1  0.00157735  0.99998734  0.49644402  1
  Hg  Hg35  1  0.50159218  0.50002062  0.00354498  1
  Cl  Cl36  1  0.49912904  0.27498866  0.99616712  1
  Cl  Cl37  1  0.24057167  0.98182075  0.19716426  1
  Cl  Cl38  1  0.69802019  0.01641106  0.25787833  1
  Cl  Cl39  1  0.99909376  0.22501768  0.50388570  1
  Cl  Cl40  1  0.30080503  0.01827173  0.73849463  1
  Cl  Cl41  1  0.75969588  0.98366468  0.79932937  1
  Cl  Cl42  1  0.50006992  0.72513804  0.00449422  1
  Cl  Cl43  1  0.74056097  0.51818421  0.30284269  1
  Cl  Cl44  1  0.19801505  0.48360324  0.24212341  1
  Cl  Cl45  1  0.00012087  0.77486981  0.49546390  1
  Cl  Cl46  1  0.25968628  0.51633708  0.70068500  1
  Cl  Cl47  1  0.80079723  0.48172157  0.76150371  1
