# generated using pymatgen
data_CdH10PtC2(N2Cl3)2
_symmetry_space_group_name_H-M   'P 1'
_cell_length_a   8.05983104
_cell_length_b   10.30323790
_cell_length_c   7.63396077
_cell_angle_alpha   90.22146555
_cell_angle_beta   90.00314926
_cell_angle_gamma   89.99946251
_symmetry_Int_Tables_number   1
_chemical_formula_structural   CdH10PtC2(N2Cl3)2
_chemical_formula_sum   'Cd2 H20 Pt2 C4 N8 Cl12'
_cell_volume   633.93735637
_cell_formula_units_Z   2
loop_
 _symmetry_equiv_pos_site_id
 _symmetry_equiv_pos_as_xyz
  1  'x, y, z'
loop_
 _atom_site_type_symbol
 _atom_site_label
 _atom_site_symmetry_multiplicity
 _atom_site_fract_x
 _atom_site_fract_y
 _atom_site_fract_z
 _atom_site_occupancy
  C  C0  1  0.49845281  0.29202300  0.49683073  1
  C  C1  1  0.99846965  0.20799896  0.00316706  1
  C  C2  1  0.50313225  0.79273598  0.50419789  1
  C  C3  1  0.00308567  0.70726355  0.99580845  1
  N  N4  1  0.61119342  0.23505186  0.59308092  1
  N  N5  1  0.38729961  0.23403671  0.39912658  1
  N  N6  1  0.11122142  0.26496184  0.90694734  1
  N  N7  1  0.88733526  0.26598525  0.10087250  1
  N  N8  1  0.61180845  0.73414911  0.60361964  1
  N  N9  1  0.38935082  0.73646701  0.40811517  1
  N  N10  1  0.11175311  0.76584407  0.89639294  1
  N  N11  1  0.88931247  0.76352717  0.09188585  1
  H  H12  1  0.49707270  0.39762121  0.49797786  1
  H  H13  1  0.68856343  0.29152018  0.66718709  1
  H  H14  1  0.62706347  0.13706706  0.59991859  1
  H  H15  1  0.30785690  0.29007861  0.32753031  1
  H  H16  1  0.37255531  0.13591553  0.39115406  1
  H  H17  1  0.99705776  0.10239472  0.00199061  1
  H  H18  1  0.18857460  0.20848900  0.83283942  1
  H  H19  1  0.12712436  0.36294220  0.90013723  1
  H  H20  1  0.80789023  0.20994623  0.17243508  1
  H  H21  1  0.87262872  0.36410108  0.10886427  1
  H  H22  1  0.50795994  0.89821650  0.50117931  1
  H  H23  1  0.69562679  0.78962115  0.67107690  1
  H  H24  1  0.61479397  0.63640973  0.62310156  1
  H  H25  1  0.31046210  0.79332823  0.33678391  1
  H  H26  1  0.37872985  0.63850115  0.39329723  1
  H  H27  1  0.00790857  0.60177554  0.99882911  1
  H  H28  1  0.19555530  0.71037588  0.82894405  1
  H  H29  1  0.11473513  0.86358238  0.87690627  1
  H  H30  1  0.81044262  0.70666065  0.16320717  1
  H  H31  1  0.87869115  0.86149015  0.10670268  1
  Cd  Cd32  1  0.49786046  0.00974842  0.99962974  1
  Cd  Cd33  1  0.99789509  0.49023277  0.50039903  1
  Pt  Pt34  1  -0.00007594  0.98454260  0.49847225  1
  Pt  Pt35  1  0.49991756  0.51545388  0.00152477  1
  Cl  Cl36  1  0.50186342  0.29014503  0.99778340  1
  Cl  Cl37  1  0.17968386  0.98171261  0.25749944  1
  Cl  Cl38  1  0.68221254  0.01705738  0.24150709  1
  Cl  Cl39  1  0.00183367  0.20985517  0.50222597  1
  Cl  Cl40  1  0.31826905  0.01878722  0.75433716  1
  Cl  Cl41  1  0.82067570  0.98317320  0.73954861  1
  Cl  Cl42  1  0.49765699  0.74167973  0.00538531  1
  Cl  Cl43  1  0.67968873  0.51829293  0.24252031  1
  Cl  Cl44  1  0.18219085  0.48295755  0.25850046  1
  Cl  Cl45  1  0.99769967  0.75831502  0.49460041  1
  Cl  Cl46  1  0.32065562  0.51682687  0.76041846  1
  Cl  Cl47  1  0.81828423  0.48120093  0.74564452  1
