# generated using pymatgen
data_HfCdH10C2(N2Cl3)2
_symmetry_space_group_name_H-M   'P 1'
_cell_length_a   7.90571034
_cell_length_b   11.47600297
_cell_length_c   8.11723733
_cell_angle_alpha   90.65738866
_cell_angle_beta   90.00018591
_cell_angle_gamma   90.00941987
_symmetry_Int_Tables_number   1
_chemical_formula_structural   HfCdH10C2(N2Cl3)2
_chemical_formula_sum   'Hf2 Cd2 H20 C4 N8 Cl12'
_cell_volume   736.39562889
_cell_formula_units_Z   2
loop_
 _symmetry_equiv_pos_site_id
 _symmetry_equiv_pos_as_xyz
  1  'x, y, z'
loop_
 _atom_site_type_symbol
 _atom_site_label
 _atom_site_symmetry_multiplicity
 _atom_site_fract_x
 _atom_site_fract_y
 _atom_site_fract_z
 _atom_site_occupancy
  C  C0  1  0.49613697  0.28844725  0.49834872  1
  C  C1  1  0.99604051  0.21157007  0.00166434  1
  C  C2  1  0.50451006  0.78740265  0.50380446  1
  C  C3  1  0.00445672  0.71257577  0.99621833  1
  N  N4  1  0.59452799  0.23768134  0.60619097  1
  N  N5  1  0.40332493  0.23483542  0.38690619  1
  N  N6  1  0.09445919  0.26234931  0.89388098  1
  N  N7  1  0.90322600  0.26514551  0.11312625  1
  N  N8  1  0.60553391  0.73421987  0.60690340  1
  N  N9  1  0.39634069  0.73647803  0.40370273  1
  N  N10  1  0.10541060  0.76576909  0.89305888  1
  N  N11  1  0.89626505  0.76349912  0.09631231  1
  H  H12  1  0.49086668  0.38330064  0.50182552  1
  H  H13  1  0.66045757  0.28787599  0.68822265  1
  H  H14  1  0.61149356  0.14962133  0.61020781  1
  H  H15  1  0.33233538  0.28317058  0.30832950  1
  H  H16  1  0.39596619  0.14629843  0.37620898  1
  H  H17  1  0.99070658  0.11670799  0.99815014  1
  H  H18  1  0.16038713  0.21218792  0.81182845  1
  H  H19  1  0.11149600  0.35041896  0.88991179  1
  H  H20  1  0.83219702  0.21679241  0.19166406  1
  H  H21  1  0.89592891  0.35368623  0.12386459  1
  H  H22  1  0.51125253  0.88221281  0.50093964  1
  H  H23  1  0.68695252  0.78293868  0.67639833  1
  H  H24  1  0.60678063  0.64601980  0.62169592  1
  H  H25  1  0.32212253  0.78664996  0.33044604  1
  H  H26  1  0.38356552  0.64822761  0.39309669  1
  H  H27  1  0.01124105  0.61777749  0.99919067  1
  H  H28  1  0.18682425  0.71705944  0.82357776  1
  H  H29  1  0.10658809  0.85395508  0.87816264  1
  H  H30  1  0.82210396  0.71331399  0.16963687  1
  H  H31  1  0.88344619  0.85174351  0.10682858  1
  Cd  Cd32  1  0.50060323  0.99749086  0.99609000  1
  Cd  Cd33  1  0.00052208  0.50252042  0.50392985  1
  Hf  Hf34  1  0.00074247  0.00195409  0.49608756  1
  Hf  Hf35  1  0.50068885  0.49806949  0.00386467  1
  Cl  Cl36  1  0.49930187  0.28743110  0.99676306  1
  Cl  Cl37  1  0.15301465  0.99090473  0.23308346  1
  Cl  Cl38  1  0.73035938  0.01514089  0.34674830  1
  Cl  Cl39  1  0.99938830  0.21258760  0.50328077  1
  Cl  Cl40  1  0.26950731  0.01275303  0.64668200  1
  Cl  Cl41  1  0.84719856  0.98847049  0.75926213  1
  Cl  Cl42  1  0.49788454  0.70868659  0.00872631  1
  Cl  Cl43  1  0.65300222  0.50919060  0.26686078  1
  Cl  Cl44  1  0.23033544  0.48486416  0.15326610  1
  Cl  Cl45  1  0.99792523  0.79133346  0.49116183  1
  Cl  Cl46  1  0.34714593  0.51146437  0.74070077  1
  Cl  Cl47  1  0.76945434  0.48726882  0.85329299  1
