# generated using pymatgen
data_BaCdH10C2(N2Cl3)2
_symmetry_space_group_name_H-M   'P 1'
_cell_length_a   7.92818912
_cell_length_b   10.91366028
_cell_length_c   8.08175658
_cell_angle_alpha   90.73272147
_cell_angle_beta   90.00086176
_cell_angle_gamma   89.99195866
_symmetry_Int_Tables_number   1
_chemical_formula_structural   BaCdH10C2(N2Cl3)2
_chemical_formula_sum   'Ba2 Cd2 H20 C4 N8 Cl12'
_cell_volume   699.22134767
_cell_formula_units_Z   2
loop_
 _symmetry_equiv_pos_site_id
 _symmetry_equiv_pos_as_xyz
  1  'x, y, z'
loop_
 _atom_site_type_symbol
 _atom_site_label
 _atom_site_symmetry_multiplicity
 _atom_site_fract_x
 _atom_site_fract_y
 _atom_site_fract_z
 _atom_site_occupancy
  C  C0  1  0.49659364  0.29713328  0.50256077  1
  C  C1  1  0.99653260  0.20289622  0.99738783  1
  C  C2  1  0.50380196  0.79685871  0.48383247  1
  C  C3  1  0.00375399  0.70310766  0.01612922  1
  N  N4  1  0.61564192  0.24695822  0.59135610  1
  N  N5  1  0.41495657  0.24300561  0.38073032  1
  N  N6  1  0.11563405  0.25307848  0.90870587  1
  N  N7  1  0.91491203  0.25697228  0.11928912  1
  N  N8  1  0.57647873  0.74426160  0.60968122  1
  N  N9  1  0.38507511  0.74757364  0.39103409  1
  N  N10  1  0.07644717  0.75576718  0.89034071  1
  N  N11  1  0.88505942  0.75236983  0.10899154  1
  H  H12  1  0.46065132  0.39111375  0.53415746  1
  H  H13  1  0.67739662  0.29891316  0.67846247  1
  H  H14  1  0.64878829  0.15715540  0.57929580  1
  H  H15  1  0.31997514  0.29040670  0.32463220  1
  H  H16  1  0.44510516  0.15769122  0.33633128  1
  H  H17  1  0.96051203  0.10896573  0.96563106  1
  H  H18  1  0.17737586  0.20117210  0.82152896  1
  H  H19  1  0.14889338  0.34283651  0.92099450  1
  H  H20  1  0.81989199  0.20957899  0.17530055  1
  H  H21  1  0.94511594  0.34223606  0.16381147  1
  H  H22  1  0.54696101  0.88827455  0.45023554  1
  H  H23  1  0.66135070  0.79360536  0.67893367  1
  H  H24  1  0.54248784  0.65930408  0.64882150  1
  H  H25  1  0.33897088  0.79680275  0.29411579  1
  H  H26  1  0.32921399  0.66574778  0.41698777  1
  H  H27  1  0.04688390  0.61165063  0.04959969  1
  H  H28  1  0.16130651  0.70643709  0.82103465  1
  H  H29  1  0.04248603  0.84076615  0.85130888  1
  H  H30  1  0.83895587  0.70309164  0.20586019  1
  H  H31  1  0.82923892  0.83425081  0.08318509  1
  Cd  Cd32  1  0.49597608  0.00175743  0.97068643  1
  Cd  Cd33  1  0.99602184  0.49825447  0.52932195  1
  Ba  Ba34  1  0.01335402  0.99911352  0.47010537  1
  Ba  Ba35  1  0.51337290  0.50090252  0.02989156  1
  Cl  Cl36  1  0.51784705  0.23262649  0.98020261  1
  Cl  Cl37  1  0.23803498  0.99428394  0.17905616  1
  Cl  Cl38  1  0.70076853  0.02076158  0.25452304  1
  Cl  Cl39  1  0.01788805  0.26738609  0.51980726  1
  Cl  Cl40  1  0.29692170  0.01083396  0.71368370  1
  Cl  Cl41  1  0.77706897  0.97753364  0.77634560  1
  Cl  Cl42  1  0.49672193  0.77017587  0.99656777  1
  Cl  Cl43  1  0.73807869  0.50573746  0.32092980  1
  Cl  Cl44  1  0.20076544  0.47918585  0.24540561  1
  Cl  Cl45  1  0.99674071  0.72983456  0.50342575  1
  Cl  Cl46  1  0.27711226  0.52249903  0.72361046  1
  Cl  Cl47  1  0.79689764  0.48919339  0.78627392  1
