# generated using pymatgen
data_CdSnH10C2(N2Cl3)2
_symmetry_space_group_name_H-M   'P 1'
_cell_length_a   7.82789583
_cell_length_b   10.62422397
_cell_length_c   7.81302124
_cell_angle_alpha   89.94951714
_cell_angle_beta   90.00099975
_cell_angle_gamma   90.00364409
_symmetry_Int_Tables_number   1
_chemical_formula_structural   CdSnH10C2(N2Cl3)2
_chemical_formula_sum   'Cd2 Sn2 H20 C4 N8 Cl12'
_cell_volume   649.77214621
_cell_formula_units_Z   2
loop_
 _symmetry_equiv_pos_site_id
 _symmetry_equiv_pos_as_xyz
  1  'x, y, z'
loop_
 _atom_site_type_symbol
 _atom_site_label
 _atom_site_symmetry_multiplicity
 _atom_site_fract_x
 _atom_site_fract_y
 _atom_site_fract_z
 _atom_site_occupancy
  C  C0  1  0.49488409  0.29280415  0.49635289  1
  C  C1  1  0.99491819  0.20719623  0.00366462  1
  C  C2  1  0.50501135  0.79278938  0.50336050  1
  C  C3  1  0.00496412  0.70721339  0.99662794  1
  N  N4  1  0.60277231  0.23690283  0.59928234  1
  N  N5  1  0.39114466  0.23676938  0.38941750  1
  N  N6  1  0.10283718  0.26309457  0.90076249  1
  N  N7  1  0.89118256  0.26322921  0.11058983  1
  N  N8  1  0.60881740  0.73675560  0.61027008  1
  N  N9  1  0.39745613  0.73688390  0.40014184  1
  N  N10  1  0.10876829  0.76325222  0.88973786  1
  N  N11  1  0.89738203  0.76310461  0.09983039  1
  H  H12  1  0.49067064  0.39520153  0.50022506  1
  H  H13  1  0.67891033  0.29127910  0.67548197  1
  H  H14  1  0.61409931  0.14164575  0.61020915  1
  H  H15  1  0.31128859  0.29151614  0.31743225  1
  H  H16  1  0.38619171  0.14174974  0.37156621  1
  H  H17  1  0.99067651  0.10480361  0.99977313  1
  H  H18  1  0.17896583  0.20872481  0.82456436  1
  H  H19  1  0.11419777  0.35835690  0.88985081  1
  H  H20  1  0.81129392  0.20848744  0.18256027  1
  H  H21  1  0.88625012  0.35825911  0.12845523  1
  H  H22  1  0.50876745  0.89520087  0.49972132  1
  H  H23  1  0.68480539  0.79159169  0.68610998  1
  H  H24  1  0.62071323  0.64148141  0.62144232  1
  H  H25  1  0.32470112  0.79118245  0.32048618  1
  H  H26  1  0.37993282  0.64185453  0.39569551  1
  H  H27  1  0.00872938  0.60480176  0.00027730  1
  H  H28  1  0.18478065  0.70843276  0.81391229  1
  H  H29  1  0.12066311  0.85853254  0.87856322  1
  H  H30  1  0.82462818  0.70879979  0.17948708  1
  H  H31  1  0.87984701  0.85813860  0.10426782  1
  Cd  Cd32  1  0.50007674  0.99999003  0.99705061  1
  Cd  Cd33  1  0.00009214  0.50001418  0.50295160  1
  Sn  Sn34  1  0.00166498  0.00001162  0.49685795  1
  Sn  Sn35  1  0.50166487  0.49999262  0.00313688  1
  Cl  Cl36  1  0.49910367  0.24054925  0.99551249  1
  Cl  Cl37  1  0.22584559  0.98499626  0.21372024  1
  Cl  Cl38  1  0.71417955  0.01408280  0.27254498  1
  Cl  Cl39  1  0.99904977  0.25945417  0.50452491  1
  Cl  Cl40  1  0.28364789  0.01476244  0.72384658  1
  Cl  Cl41  1  0.77439638  0.98617624  0.78306953  1
  Cl  Cl42  1  0.50099182  0.75945364  0.00354409  1
  Cl  Cl43  1  0.72584210  0.51499635  0.28628423  1
  Cl  Cl44  1  0.21416186  0.48591684  0.22744237  1
  Cl  Cl45  1  0.00102863  0.74055061  0.49641433  1
  Cl  Cl46  1  0.27439627  0.51383773  0.71693557  1
  Cl  Cl47  1  0.78362570  0.48524220  0.77614865  1
