# generated using pymatgen
data_CdInH10C2(N2Cl3)2
_symmetry_space_group_name_H-M   'P 1'
_cell_length_a   7.91797044
_cell_length_b   10.61900252
_cell_length_c   7.77742956
_cell_angle_alpha   91.28483751
_cell_angle_beta   90.77736796
_cell_angle_gamma   89.76169576
_symmetry_Int_Tables_number   1
_chemical_formula_structural   CdInH10C2(N2Cl3)2
_chemical_formula_sum   'Cd2 In2 H20 C4 N8 Cl12'
_cell_volume   653.70420553
_cell_formula_units_Z   2
loop_
 _symmetry_equiv_pos_site_id
 _symmetry_equiv_pos_as_xyz
  1  'x, y, z'
loop_
 _atom_site_type_symbol
 _atom_site_label
 _atom_site_symmetry_multiplicity
 _atom_site_fract_x
 _atom_site_fract_y
 _atom_site_fract_z
 _atom_site_occupancy
  C  C0  1  0.50042980  0.29006788  0.49981036  1
  C  C1  1  0.00304090  0.20420753  0.99504948  1
  C  C2  1  0.51259985  0.78685911  0.49285930  1
  C  C3  1  0.01080718  0.71608110  0.00761584  1
  N  N4  1  0.61652189  0.23851301  0.59741259  1
  N  N5  1  0.39871738  0.22979811  0.39297505  1
  N  N6  1  0.11138590  0.26130356  0.89808216  1
  N  N7  1  0.89762353  0.25955474  0.10078638  1
  N  N8  1  0.59637333  0.72666262  0.61212577  1
  N  N9  1  0.37707484  0.74464301  0.41299194  1
  N  N10  1  0.09976683  0.76948449  0.88893280  1
  N  N11  1  0.88765948  0.77008912  0.09270673  1
  H  H12  1  0.48674002  0.39208555  0.50851598  1
  H  H13  1  0.68413616  0.29512349  0.68053030  1
  H  H14  1  0.63493722  0.14358700  0.60548834  1
  H  H15  1  0.31458577  0.28109258  0.32249172  1
  H  H16  1  0.40263206  0.13469610  0.37076339  1
  H  H17  1  0.00026318  0.10181341  0.98655890  1
  H  H18  1  0.18996858  0.20787504  0.82264632  1
  H  H19  1  0.12654292  0.35655062  0.89880868  1
  H  H20  1  0.81566158  0.20468472  0.16660404  1
  H  H21  1  0.88750724  0.35487671  0.11708878  1
  H  H22  1  0.56098293  0.87803092  0.45460582  1
  H  H23  1  0.69574899  0.77050556  0.67256216  1
  H  H24  1  0.55720243  0.64276073  0.65811859  1
  H  H25  1  0.32132718  0.79895729  0.32090738  1
  H  H26  1  0.32308838  0.66036096  0.43882294  1
  H  H27  1  0.04382744  0.61960306  0.04012048  1
  H  H28  1  0.19483558  0.71916430  0.83246855  1
  H  H29  1  0.08326769  0.86066281  0.85397088  1
  H  H30  1  0.82284762  0.71843837  0.17872614  1
  H  H31  1  0.84463231  0.85870837  0.06777048  1
  Cd  Cd32  1  0.49906747  0.00079872  0.98305797  1
  Cd  Cd33  1  0.96656921  0.50042057  0.54346252  1
  In  In34  1  0.00882100  0.00232656  0.47784611  1
  In  In35  1  0.49395027  0.49958581  0.02146573  1
  Cl  Cl36  1  0.50553451  0.26659367  0.99070944  1
  Cl  Cl37  1  0.24446168  0.98377970  0.18900484  1
  Cl  Cl38  1  0.69711142  0.02223222  0.25055459  1
  Cl  Cl39  1  0.00916088  0.27902291  0.49817455  1
  Cl  Cl40  1  0.30220189  0.01460509  0.72165352  1
  Cl  Cl41  1  0.76425988  0.98020067  0.78854397  1
  Cl  Cl42  1  0.49800041  0.73393003  0.01114417  1
  Cl  Cl43  1  0.70859273  0.50987565  0.26991912  1
  Cl  Cl44  1  0.24014579  0.48391823  0.21276434  1
  Cl  Cl45  1  0.99257432  0.72145337  0.49411054  1
  Cl  Cl46  1  0.29790697  0.51390447  0.74514259  1
  Cl  Cl47  1  0.76892471  0.49057346  0.81363252  1
