# generated using pymatgen
data_InBiH10C2(N2Cl3)2
_symmetry_space_group_name_H-M   'P 1'
_cell_length_a   8.03583162
_cell_length_b   11.10978217
_cell_length_c   8.03001312
_cell_angle_alpha   90.23432415
_cell_angle_beta   90.00088283
_cell_angle_gamma   89.99624165
_symmetry_Int_Tables_number   1
_chemical_formula_structural   InBiH10C2(N2Cl3)2
_chemical_formula_sum   'In2 Bi2 H20 C4 N8 Cl12'
_cell_volume   716.88417485
_cell_formula_units_Z   2
loop_
 _symmetry_equiv_pos_site_id
 _symmetry_equiv_pos_as_xyz
  1  'x, y, z'
loop_
 _atom_site_type_symbol
 _atom_site_label
 _atom_site_symmetry_multiplicity
 _atom_site_fract_x
 _atom_site_fract_y
 _atom_site_fract_z
 _atom_site_occupancy
  C  C0  1  0.49612053  0.29024600  0.49742666  1
  C  C1  1  0.99611959  0.20989444  0.00254866  1
  C  C2  1  0.50474064  0.79001736  0.50235071  1
  C  C3  1  0.00467442  0.70985108  0.99763299  1
  N  N4  1  0.60009441  0.23745404  0.59949816  1
  N  N5  1  0.39500165  0.23567482  0.39367609  1
  N  N6  1  0.10013160  0.26270044  0.90052399  1
  N  N7  1  0.89503298  0.26447311  0.10632501  1
  N  N8  1  0.60529408  0.73533950  0.60596056  1
  N  N9  1  0.39888286  0.73736861  0.40150823  1
  N  N10  1  0.10523418  0.76452685  0.89406136  1
  N  N11  1  0.89879817  0.76247353  0.09850485  1
  H  H12  1  0.49335685  0.38834692  0.49891533  1
  H  H13  1  0.67302980  0.28950882  0.67502391  1
  H  H14  1  0.61331309  0.14635065  0.60799532  1
  H  H15  1  0.31961407  0.28674121  0.31988706  1
  H  H16  1  0.38611498  0.14435277  0.38227012  1
  H  H17  1  0.99330192  0.11179580  0.00097376  1
  H  H18  1  0.17305337  0.21065200  0.82496552  1
  H  H19  1  0.11339975  0.35379876  0.89210900  1
  H  H20  1  0.81960494  0.21341256  0.18007330  1
  H  H21  1  0.88619468  0.35579049  0.11779847  1
  H  H22  1  0.50987407  0.88804467  0.49972219  1
  H  H23  1  0.68255800  0.78629787  0.67851314  1
  H  H24  1  0.61101906  0.64410988  0.61925255  1
  H  H25  1  0.32649198  0.78944811  0.32606697  1
  H  H26  1  0.38461304  0.64630290  0.39280344  1
  H  H27  1  0.00979336  0.61182149  0.00021932  1
  H  H28  1  0.18250381  0.71357618  0.82149798  1
  H  H29  1  0.11097049  0.85576212  0.88081305  1
  H  H30  1  0.82640699  0.71038353  0.17390326  1
  H  H31  1  0.88453477  0.85354855  0.10725136  1
  In  In32  1  0.49942255  0.99996579  0.99688749  1
  In  In33  1  0.99942592  0.50003296  0.50313210  1
  Bi  Bi34  1  0.00031292  0.00002393  0.49723660  1
  Bi  Bi35  1  0.50030304  0.49997467  0.00276994  1
  Cl  Cl36  1  0.49880637  0.25878517  0.99758954  1
  Cl  Cl37  1  0.20966456  0.98586256  0.22930675  1
  Cl  Cl38  1  0.73121895  0.01458813  0.28834918  1
  Cl  Cl39  1  0.99878929  0.24121617  0.50242919  1
  Cl  Cl40  1  0.26804077  0.01417322  0.70634389  1
  Cl  Cl41  1  0.79177356  0.98534047  0.76627116  1
  Cl  Cl42  1  0.50083482  0.74117260  0.00330237  1
  Cl  Cl43  1  0.70965256  0.51416154  0.27071371  1
  Cl  Cl44  1  0.23118833  0.48541238  0.21163437  1
  Cl  Cl45  1  0.00089381  0.75882263  0.49667413  1
  Cl  Cl46  1  0.29178502  0.51465050  0.73372589  1
  Cl  Cl47  1  0.76803277  0.48581523  0.79366612  1
