# generated using pymatgen
data_TlInH10C2(N2Cl3)2
_symmetry_space_group_name_H-M   'P 1'
_cell_length_a   7.93826650
_cell_length_b   10.93412534
_cell_length_c   7.92111258
_cell_angle_alpha   89.74254684
_cell_angle_beta   89.99726814
_cell_angle_gamma   90.00008244
_symmetry_Int_Tables_number   1
_chemical_formula_structural   TlInH10C2(N2Cl3)2
_chemical_formula_sum   'Tl2 In2 H20 C4 N8 Cl12'
_cell_volume   687.52979456
_cell_formula_units_Z   2
loop_
 _symmetry_equiv_pos_site_id
 _symmetry_equiv_pos_as_xyz
  1  'x, y, z'
loop_
 _atom_site_type_symbol
 _atom_site_label
 _atom_site_symmetry_multiplicity
 _atom_site_fract_x
 _atom_site_fract_y
 _atom_site_fract_z
 _atom_site_occupancy
  C  C0  1  0.49454571  0.29234265  0.49597651  1
  C  C1  1  0.99458015  0.20764634  0.00403077  1
  C  C2  1  0.50553585  0.79238401  0.50334319  1
  C  C3  1  0.00547050  0.70762308  0.99664877  1
  N  N4  1  0.60226337  0.23788245  0.59668759  1
  N  N5  1  0.39117734  0.23814706  0.39129626  1
  N  N6  1  0.10232399  0.26209855  0.90335180  1
  N  N7  1  0.89119710  0.26183949  0.10871504  1
  N  N8  1  0.60726150  0.73807677  0.61019597  1
  N  N9  1  0.40022591  0.73801522  0.40064341  1
  N  N10  1  0.10718925  0.76194122  0.88982472  1
  N  N11  1  0.90012608  0.76198143  0.09933498  1
  H  H12  1  0.49031920  0.39187443  0.49990607  1
  H  H13  1  0.67892432  0.29036411  0.67033359  1
  H  H14  1  0.61152325  0.14527180  0.60950593  1
  H  H15  1  0.31020103  0.29125847  0.32241008  1
  H  H16  1  0.38794816  0.14593140  0.37199052  1
  H  H17  1  0.99032670  0.10813148  1.00008264  1
  H  H18  1  0.17897187  0.20963539  0.82972601  1
  H  H19  1  0.11161248  0.35470753  0.89055863  1
  H  H20  1  0.81021489  0.20874633  0.17756017  1
  H  H21  1  0.88798982  0.35404705  0.12803037  1
  H  H22  1  0.50904371  0.89193843  0.49923235  1
  H  H23  1  0.68018062  0.79120767  0.68680581  1
  H  H24  1  0.62089897  0.64548466  0.61996624  1
  H  H25  1  0.32999022  0.79051348  0.32025253  1
  H  H26  1  0.38107674  0.64578117  0.39874221  1
  H  H27  1  0.00899350  0.60807595  0.00076140  1
  H  H28  1  0.18013959  0.70882030  0.81322482  1
  H  H29  1  0.12082852  0.85452935  0.88005308  1
  H  H30  1  0.82989529  0.70947935  0.17971078  1
  H  H31  1  0.88096683  0.85420393  0.10123231  1
  In  In32  1  0.49917605  0.00000428  0.99776304  1
  In  In33  1  0.99917924  0.50000799  0.50223517  1
  Tl  Tl34  1  0.00047391  0.00005869  0.49663428  1
  Tl  Tl35  1  0.50047758  0.49995569  0.00335858  1
  Cl  Cl36  1  0.49949914  0.22729670  0.99396370  1
  Cl  Cl37  1  0.23999897  0.98781982  0.19399156  1
  Cl  Cl38  1  0.69392946  0.01376656  0.25914726  1
  Cl  Cl39  1  0.99947952  0.27271652  0.50606893  1
  Cl  Cl40  1  0.30373210  0.01124467  0.73802502  1
  Cl  Cl41  1  0.76037224  0.98734336  0.80322474  1
  Cl  Cl42  1  0.50184073  0.77275347  0.00418928  1
  Cl  Cl43  1  0.73998847  0.51218427  0.30601505  1
  Cl  Cl44  1  0.19392307  0.48622604  0.24083569  1
  Cl  Cl45  1  0.00191015  0.72725758  0.49576650  1
  Cl  Cl46  1  0.26036636  0.51267171  0.69678205  1
  Cl  Cl47  1  0.80372987  0.48877508  0.76196938  1
