# generated using pymatgen
data_InH10AuC2(N2Cl3)2
_symmetry_space_group_name_H-M   'P 1'
_cell_length_a   8.05173176
_cell_length_b   10.09005163
_cell_length_c   8.03629066
_cell_angle_alpha   89.75776273
_cell_angle_beta   90.00136402
_cell_angle_gamma   90.00028422
_symmetry_Int_Tables_number   1
_chemical_formula_structural   InH10AuC2(N2Cl3)2
_chemical_formula_sum   'In2 H20 Au2 C4 N8 Cl12'
_cell_volume   652.88161740
_cell_formula_units_Z   2
loop_
 _symmetry_equiv_pos_site_id
 _symmetry_equiv_pos_as_xyz
  1  'x, y, z'
loop_
 _atom_site_type_symbol
 _atom_site_label
 _atom_site_symmetry_multiplicity
 _atom_site_fract_x
 _atom_site_fract_y
 _atom_site_fract_z
 _atom_site_occupancy
  C  C0  1  0.49631192  0.29379493  0.49579410  1
  C  C1  1  0.99632586  0.20620729  0.00422810  1
  C  C2  1  0.50412143  0.79374616  0.50341463  1
  C  C3  1  0.00409252  0.70625947  0.99656662  1
  N  N4  1  0.60365962  0.23604895  0.59456170  1
  N  N5  1  0.39242013  0.23490526  0.39489708  1
  N  N6  1  0.10369835  0.26395386  0.90547613  1
  N  N7  1  0.89246337  0.26509305  0.10511469  1
  N  N8  1  0.60287784  0.73482535  0.60986273  1
  N  N9  1  0.40177689  0.73603950  0.39996349  1
  N  N10  1  0.10283282  0.76519045  0.89013231  1
  N  N11  1  0.90172319  0.76395466  0.10001664  1
  H  H12  1  0.49278809  0.40154095  0.49776799  1
  H  H13  1  0.67814400  0.29399151  0.66731139  1
  H  H14  1  0.61685310  0.13601765  0.60600323  1
  H  H15  1  0.31438134  0.29258060  0.32499997  1
  H  H16  1  0.38448171  0.13483508  0.37990197  1
  H  H17  1  0.99278625  0.09845100  0.00221305  1
  H  H18  1  0.17818285  0.20600764  0.83270132  1
  H  H19  1  0.11692153  0.36398605  0.89406197  1
  H  H20  1  0.81440152  0.20742031  0.17499787  1
  H  H21  1  0.88454420  0.36515555  0.12013386  1
  H  H22  1  0.50772098  0.90149957  0.50049034  1
  H  H23  1  0.67599745  0.79249341  0.68433617  1
  H  H24  1  0.61340383  0.63468626  0.62308251  1
  H  H25  1  0.33161647  0.79405459  0.32245361  1
  H  H26  1  0.38557213  0.63609842  0.39231902  1
  H  H27  1  0.00770751  0.59850536  0.99949823  1
  H  H28  1  0.17597275  0.70753468  0.81566916  1
  H  H29  1  0.11334403  0.86533123  0.87691620  1
  H  H30  1  0.83158007  0.70593140  0.17752386  1
  H  H31  1  0.88550892  0.86389420  0.10765675  1
  In  In32  1  0.49899072  0.00002636  0.99791262  1
  In  In33  1  0.99899243  0.49997748  0.50209906  1
  Au  Au34  1  0.99981802  0.99999346  0.49897530  1
  Au  Au35  1  0.49982231  0.50001117  0.00102694  1
  Cl  Cl36  1  0.49984637  0.26980886  0.99566388  1
  Cl  Cl37  1  0.25137145  0.98394480  0.18492215  1
  Cl  Cl38  1  0.68578266  0.01398951  0.24652011  1
  Cl  Cl39  1  -0.00019702  0.23019471  0.50438000  1
  Cl  Cl40  1  0.31331996  0.01640661  0.74923566  1
  Cl  Cl41  1  0.74801205  0.98592338  0.81198164  1
  Cl  Cl42  1  0.50076050  0.73023972  0.00443818  1
  Cl  Cl43  1  0.75136889  0.51604722  0.31507972  1
  Cl  Cl44  1  0.18577219  0.48601757  0.25348640  1
  Cl  Cl45  1  0.00081405  0.76976579  0.49551899  1
  Cl  Cl46  1  0.24801479  0.51409024  0.68803209  1
  Cl  Cl47  1  0.81331729  0.48359171  0.75076532  1
