# generated using pymatgen
data_InH10IrC2(N2Cl3)2
_symmetry_space_group_name_H-M   'P 1'
_cell_length_a   7.82464187
_cell_length_b   10.65030345
_cell_length_c   7.80705543
_cell_angle_alpha   90.32165948
_cell_angle_beta   90.00075775
_cell_angle_gamma   89.99631337
_symmetry_Int_Tables_number   1
_chemical_formula_structural   InH10IrC2(N2Cl3)2
_chemical_formula_sum   'In2 H20 Ir2 C4 N8 Cl12'
_cell_volume   650.58922948
_cell_formula_units_Z   2
loop_
 _symmetry_equiv_pos_site_id
 _symmetry_equiv_pos_as_xyz
  1  'x, y, z'
loop_
 _atom_site_type_symbol
 _atom_site_label
 _atom_site_symmetry_multiplicity
 _atom_site_fract_x
 _atom_site_fract_y
 _atom_site_fract_z
 _atom_site_occupancy
  C  C0  1  0.49527122  0.29332138  0.49681767  1
  C  C1  1  0.99530644  0.20667878  0.00319273  1
  C  C2  1  0.50508588  0.79335772  0.50387305  1
  C  C3  1  0.00503654  0.70665156  0.99610637  1
  N  N4  1  0.60171843  0.23756369  0.60110407  1
  N  N5  1  0.39204903  0.23746589  0.38882060  1
  N  N6  1  0.10178405  0.26242568  0.89894016  1
  N  N7  1  0.89207958  0.26253081  0.11119936  1
  N  N8  1  0.60988294  0.73763002  0.60976329  1
  N  N9  1  0.39594861  0.73754175  0.40177759  1
  N  N10  1  0.10983843  0.76238538  0.89024198  1
  N  N11  1  0.89587578  0.76246105  0.09819077  1
  H  H12  1  0.49220772  0.39538856  0.50042927  1
  H  H13  1  0.67113781  0.29141130  0.68437376  1
  H  H14  1  0.62439125  0.14316865  0.60118218  1
  H  H15  1  0.31989958  0.29187980  0.30934672  1
  H  H16  1  0.37366357  0.14257892  0.38212821  1
  H  H17  1  0.99221561  0.10459414  0.99954507  1
  H  H18  1  0.17119379  0.20857502  0.81566101  1
  H  H19  1  0.12447037  0.35680893  0.89889698  1
  H  H20  1  0.81991057  0.20812122  0.19063715  1
  H  H21  1  0.87371866  0.35741463  0.11790874  1
  H  H22  1  0.50939874  0.89540230  0.50030031  1
  H  H23  1  0.69366418  0.79189024  0.67790719  1
  H  H24  1  0.61056936  0.64333020  0.63296217  1
  H  H25  1  0.31646945  0.79148065  0.32906469  1
  H  H26  1  0.38930796  0.64259946  0.38423649  1
  H  H27  1  0.00936208  0.60460683  0.99966558  1
  H  H28  1  0.19363917  0.70813324  0.82210311  1
  H  H29  1  0.11051476  0.85668791  0.86706193  1
  H  H30  1  0.81639518  0.70851734  0.17088464  1
  H  H31  1  0.88922043  0.85740325  0.11574816  1
  In  In32  1  0.49785438  0.99997908  0.99647400  1
  In  In33  1  0.99786364  0.50003398  0.50354297  1
  Ir  Ir34  1  0.00023787  0.99997753  0.49806524  1
  Ir  Ir35  1  0.50022956  0.50002991  0.00193750  1
  Cl  Cl36  1  0.49926978  0.27761656  0.99750560  1
  Cl  Cl37  1  0.18524424  0.99164879  0.25623655  1
  Cl  Cl38  1  0.75877714  0.00749706  0.31269667  1
  Cl  Cl39  1  0.99923338  0.22239123  0.50253943  1
  Cl  Cl40  1  0.24182778  0.00860714  0.68298618  1
  Cl  Cl41  1  0.81553799  0.99205272  0.74010487  1
  Cl  Cl42  1  0.50065934  0.72245169  0.00499382  1
  Cl  Cl43  1  0.68523792  0.50836210  0.24376815  1
  Cl  Cl44  1  0.25876856  0.49252399  0.18730161  1
  Cl  Cl45  1  0.00070985  0.77755639  0.49496900  1
  Cl  Cl46  1  0.31552678  0.50794748  0.75989593  1
  Cl  Cl47  1  0.74181395  0.49138103  0.81701622  1
