# generated using pymatgen
data_ZrZnH12C2(I3N)2
_symmetry_space_group_name_H-M   'P 1'
_cell_length_a   8.48705137
_cell_length_b   12.24558148
_cell_length_c   8.38066792
_cell_angle_alpha   94.43454402
_cell_angle_beta   90.00202398
_cell_angle_gamma   89.94713765
_symmetry_Int_Tables_number   1
_chemical_formula_structural   ZrZnH12C2(I3N)2
_chemical_formula_sum   'Zr2 Zn2 H24 C4 I12 N4'
_cell_volume   868.38557490
_cell_formula_units_Z   2
loop_
 _symmetry_equiv_pos_site_id
 _symmetry_equiv_pos_as_xyz
  1  'x, y, z'
loop_
 _atom_site_type_symbol
 _atom_site_label
 _atom_site_symmetry_multiplicity
 _atom_site_fract_x
 _atom_site_fract_y
 _atom_site_fract_z
 _atom_site_occupancy
  C  C0  1  0.40033666  0.25119451  0.41475816  1
  C  C1  1  0.90136445  0.24905126  0.08607960  1
  C  C2  1  0.59966230  0.74880896  0.58525046  1
  C  C3  1  0.09863823  0.75095178  0.91393491  1
  N  N4  1  0.54155772  0.25313596  0.51978832  1
  N  N5  1  0.04205594  0.24689020  0.98030955  1
  N  N6  1  0.45844007  0.74686753  0.48022150  1
  N  N7  1  0.95795045  0.75310774  0.01970949  1
  H  H8  1  0.43932486  0.24690735  0.28982945  1
  H  H9  1  0.33024704  0.17893011  0.43644230  1
  H  H10  1  0.33194016  0.32605474  0.44296489  1
  H  H11  1  0.60889881  0.18261700  0.49462223  1
  H  H12  1  0.61145065  0.32034135  0.50035264  1
  H  H13  1  0.51199668  0.25737219  0.64112598  1
  H  H14  1  0.94100231  0.25340850  0.21080582  1
  H  H15  1  0.83291400  0.17423790  0.05839777  1
  H  H16  1  0.83108259  0.32136786  0.06467116  1
  H  H17  1  0.11207425  0.17960976  0.99942818  1
  H  H18  1  0.10944495  0.31733303  0.00506887  1
  H  H19  1  0.01188251  0.24264630  0.85911389  1
  H  H20  1  0.56067461  0.75309578  0.71017996  1
  H  H21  1  0.66805778  0.67394765  0.55704368  1
  H  H22  1  0.66975310  0.82107242  0.56356677  1
  H  H23  1  0.39110029  0.81738737  0.50538901  1
  H  H24  1  0.38854799  0.67966354  0.49965708  1
  H  H25  1  0.48800110  0.74263264  0.35888389  1
  H  H26  1  0.05899644  0.74659662  0.78920997  1
  H  H27  1  0.16708707  0.82576570  0.94161795  1
  H  H28  1  0.16892364  0.67863555  0.93533725  1
  H  H29  1  0.88792849  0.82038727  0.00059657  1
  H  H30  1  0.89056384  0.68266420  0.99494897  1
  H  H31  1  0.98812769  0.75734980  0.14090420  1
  Zn  Zn32  1  0.50000206  0.00000943  0.00000817  1
  Zn  Zn33  1  0.99999769  0.50000106  0.49999580  1
  Zr  Zr34  1  0.99999969  0.00000237  0.50000962  1
  Zr  Zr35  1  0.50000052  0.50000517  0.00000252  1
  I  I36  1  0.47819192  0.26496953  0.94172599  1
  I  I37  1  0.15900527  0.01871863  0.19930983  1
  I  I38  1  0.70041429  0.00066071  0.33818394  1
  I  I39  1  0.97745983  0.23499961  0.55853973  1
  I  I40  1  0.29958670  0.99934282  0.66183328  1
  I  I41  1  0.84099605  0.98128051  0.80070774  1
  I  I42  1  0.52180895  0.73504021  0.05828098  1
  I  I43  1  0.65873656  0.48117627  0.30081947  1
  I  I44  1  0.20030140  0.49939257  0.16152612  1
  I  I45  1  0.02254156  0.76500406  0.44147938  1
  I  I46  1  0.34125768  0.51882946  0.69918674  1
  I  I47  1  0.79969688  0.50061326  0.83847684  1
