# generated using pymatgen
data_InSbH10C2(N2Cl3)2
_symmetry_space_group_name_H-M   'P 1'
_cell_length_a   7.97287379
_cell_length_b   11.01841129
_cell_length_c   7.95568718
_cell_angle_alpha   90.15656618
_cell_angle_beta   90.00134630
_cell_angle_gamma   89.99798367
_symmetry_Int_Tables_number   1
_chemical_formula_structural   InSbH10C2(N2Cl3)2
_chemical_formula_sum   'In2 Sb2 H20 C4 N8 Cl12'
_cell_volume   698.89180012
_cell_formula_units_Z   2
loop_
 _symmetry_equiv_pos_site_id
 _symmetry_equiv_pos_as_xyz
  1  'x, y, z'
loop_
 _atom_site_type_symbol
 _atom_site_label
 _atom_site_symmetry_multiplicity
 _atom_site_fract_x
 _atom_site_fract_y
 _atom_site_fract_z
 _atom_site_occupancy
  C  C0  1  0.49412962  0.29233141  0.49647894  1
  C  C1  1  0.99416448  0.20764824  0.00353888  1
  C  C2  1  0.50595197  0.79233759  0.50361163  1
  C  C3  1  0.00590457  0.70766637  0.99636320  1
  N  N4  1  0.59962369  0.23826447  0.59805799  1
  N  N5  1  0.39266062  0.23842629  0.39048700  1
  N  N6  1  0.09969400  0.26174108  0.90200011  1
  N  N7  1  0.89267474  0.26157621  0.10953830  1
  N  N8  1  0.60840161  0.73847195  0.60836138  1
  N  N9  1  0.39920830  0.73819706  0.40301572  1
  N  N10  1  0.10836596  0.76154094  0.89163709  1
  N  N11  1  0.89913129  0.76180314  0.09694200  1
  H  H12  1  0.49017764  0.39110948  0.50088871  1
  H  H13  1  0.67206890  0.29004715  0.67598900  1
  H  H14  1  0.61507754  0.14647028  0.60276677  1
  H  H15  1  0.31684006  0.29094830  0.31692040  1
  H  H16  1  0.38369208  0.14652809  0.37712644  1
  H  H17  1  0.99018669  0.10888879  0.99910439  1
  H  H18  1  0.17214239  0.20993749  0.82406749  1
  H  H19  1  0.11517208  0.35351020  0.89733004  1
  H  H20  1  0.81684025  0.20905132  0.18306363  1
  H  H21  1  0.88373552  0.35346512  0.12290941  1
  H  H22  1  0.51016820  0.89108140  0.49942572  1
  H  H23  1  0.68640863  0.79099786  0.67996705  1
  H  H24  1  0.61444561  0.64670683  0.62402926  1
  H  H25  1  0.32505228  0.78997818  0.32706580  1
  H  H26  1  0.38633268  0.64630970  0.39509370  1
  H  H27  1  0.01013522  0.60892378  0.00054317  1
  H  H28  1  0.18639420  0.70902158  0.82004866  1
  H  H29  1  0.11439591  0.85330640  0.87598462  1
  H  H30  1  0.82496691  0.71001202  0.17287039  1
  H  H31  1  0.88623066  0.85368503  0.10486262  1
  In  In32  1  0.49962798  0.99996706  0.99720622  1
  In  In33  1  0.99963184  0.50004536  0.50279942  1
  Sb  Sb34  1  0.00074117  0.00001749  0.49772989  1
  Sb  Sb35  1  0.50073358  0.49999388  0.00226841  1
  Cl  Cl36  1  0.49843997  0.26240523  0.99491201  1
  Cl  Cl37  1  0.20510069  0.98635346  0.23046777  1
  Cl  Cl38  1  0.72908607  0.01608225  0.29494786  1
  Cl  Cl39  1  0.99840295  0.23760970  0.50513611  1
  Cl  Cl40  1  0.26621140  0.01393825  0.70127405  1
  Cl  Cl41  1  0.79897062  0.98353307  0.76792331  1
  Cl  Cl42  1  0.50167564  0.73760478  0.00535073  1
  Cl  Cl43  1  0.70508322  0.51366196  0.26954291  1
  Cl  Cl44  1  0.22906355  0.48392119  0.20504079  1
  Cl  Cl45  1  0.00172068  0.76241199  0.49460819  1
  Cl  Cl46  1  0.29896759  0.51646807  0.73207983  1
  Cl  Cl47  1  0.76618809  0.48606553  0.79872778  1
