# generated using pymatgen
data_SnH10PbC2(N2Cl3)2
_symmetry_space_group_name_H-M   'P 1'
_cell_length_a   7.98913164
_cell_length_b   11.03589588
_cell_length_c   7.97761031
_cell_angle_alpha   89.91971715
_cell_angle_beta   90.00031955
_cell_angle_gamma   89.99921910
_symmetry_Int_Tables_number   1
_chemical_formula_structural   SnH10PbC2(N2Cl3)2
_chemical_formula_sum   'Sn2 H20 Pb2 C4 N8 Cl12'
_cell_volume   703.36307190
_cell_formula_units_Z   2
loop_
 _symmetry_equiv_pos_site_id
 _symmetry_equiv_pos_as_xyz
  1  'x, y, z'
loop_
 _atom_site_type_symbol
 _atom_site_label
 _atom_site_symmetry_multiplicity
 _atom_site_fract_x
 _atom_site_fract_y
 _atom_site_fract_z
 _atom_site_occupancy
  C  C0  1  0.49404304  0.29146833  0.49682413  1
  C  C1  1  0.99408600  0.20856918  0.00315737  1
  C  C2  1  0.50568834  0.79143978  0.50330804  1
  C  C3  1  0.00562601  0.70852158  0.99667420  1
  N  N4  1  0.59996939  0.23788396  0.59815728  1
  N  N5  1  0.39251088  0.23725488  0.39211461  1
  N  N6  1  0.10002434  0.26215794  0.90188771  1
  N  N7  1  0.89253987  0.26277988  0.10789569  1
  N  N8  1  0.60725073  0.73722748  0.60831567  1
  N  N9  1  0.40012276  0.73783715  0.40194478  1
  N  N10  1  0.10718607  0.76274104  0.89171003  1
  N  N11  1  0.90002554  0.76211400  0.09804439  1
  H  H12  1  0.48985140  0.39018665  0.50026044  1
  H  H13  1  0.67375187  0.29009040  0.67366569  1
  H  H14  1  0.61294995  0.14616697  0.60656438  1
  H  H15  1  0.31503151  0.28944843  0.31995717  1
  H  H16  1  0.38648573  0.14553136  0.37715637  1
  H  H17  1  0.98984962  0.10985358  0.99967965  1
  H  H18  1  0.17381436  0.20995942  0.82635480  1
  H  H19  1  0.11304943  0.35387890  0.89352502  1
  H  H20  1  0.81504317  0.21058486  0.18000828  1
  H  H21  1  0.88654905  0.35449740  0.12288681  1
  H  H22  1  0.50964272  0.89016728  0.49977726  1
  H  H23  1  0.68312303  0.78949458  0.68180651  1
  H  H24  1  0.61599043  0.64541476  0.62090180  1
  H  H25  1  0.32786072  0.78995873  0.32461149  1
  H  H26  1  0.38499381  0.64619091  0.39607410  1
  H  H27  1  0.00958055  0.60979339  0.00018516  1
  H  H28  1  0.18308603  0.71049483  0.81821715  1
  H  H29  1  0.11592277  0.85456750  0.87915150  1
  H  H30  1  0.82776963  0.70996866  0.17534961  1
  H  H31  1  0.88489256  0.85374855  0.10393508  1
  Sn  Sn32  1  0.49922051  -0.00001021  0.99745713  1
  Sn  Sn33  1  0.99923085  0.50001942  0.50255285  1
  Pb  Pb34  1  0.00050780  0.00003601  0.49709098  1
  Pb  Pb35  1  0.50050562  0.49997300  0.00291410  1
  Cl  Cl36  1  0.49773786  0.24666293  0.99551204  1
  Cl  Cl37  1  0.22480265  0.98440930  0.21495999  1
  Cl  Cl38  1  0.71571866  0.01727602  0.27645059  1
  Cl  Cl39  1  0.99768887  0.25335378  0.50451452  1
  Cl  Cl40  1  0.28049559  0.01570561  0.72073513  1
  Cl  Cl41  1  0.78047588  0.98267522  0.77980651  1
  Cl  Cl42  1  0.50192060  0.75327514  0.00486863  1
  Cl  Cl43  1  0.72480745  0.51560334  0.28503012  1
  Cl  Cl44  1  0.21570702  0.48273204  0.22355613  1
  Cl  Cl45  1  0.00198227  0.74673727  0.49509290  1
  Cl  Cl46  1  0.28045479  0.51731541  0.72021407  1
  Cl  Cl47  1  0.78045161  0.48430630  0.77924688  1
