# generated using pymatgen
data_SnHgH10C2(N2Cl3)2
_symmetry_space_group_name_H-M   'P 1'
_cell_length_a   7.91454930
_cell_length_b   10.53257137
_cell_length_c   7.89955774
_cell_angle_alpha   89.99848442
_cell_angle_beta   89.99621486
_cell_angle_gamma   89.99542144
_symmetry_Int_Tables_number   1
_chemical_formula_structural   SnHgH10C2(N2Cl3)2
_chemical_formula_sum   'Sn2 Hg2 H20 C4 N8 Cl12'
_cell_volume   658.51151664
_cell_formula_units_Z   2
loop_
 _symmetry_equiv_pos_site_id
 _symmetry_equiv_pos_as_xyz
  1  'x, y, z'
loop_
 _atom_site_type_symbol
 _atom_site_label
 _atom_site_symmetry_multiplicity
 _atom_site_fract_x
 _atom_site_fract_y
 _atom_site_fract_z
 _atom_site_occupancy
  C  C0  1  0.49481399  0.29321562  0.49646352  1
  C  C1  1  0.99485839  0.20677095  0.00354170  1
  C  C2  1  0.50535740  0.79323214  0.50359633  1
  C  C3  1  0.00529565  0.70676602  0.99640053  1
  N  N4  1  0.60183823  0.23699169  0.59831991  1
  N  N5  1  0.39170161  0.23692583  0.39094312  1
  N  N6  1  0.10192274  0.26300806  0.90170840  1
  N  N7  1  0.89172340  0.26307564  0.10908209  1
  N  N8  1  0.60770754  0.73687832  0.60988361  1
  N  N9  1  0.39881958  0.73706086  0.40121394  1
  N  N10  1  0.10767479  0.76314265  0.89010828  1
  N  N11  1  0.89873607  0.76293558  0.09876270  1
  H  H12  1  0.49090337  0.39649236  0.50027497  1
  H  H13  1  0.67468988  0.29205295  0.67605225  1
  H  H14  1  0.61796482  0.14109119  0.60417924  1
  H  H15  1  0.31541417  0.29257128  0.31714034  1
  H  H16  1  0.38146355  0.14087509  0.37803439  1
  H  H17  1  0.99091963  0.10350822  0.99970508  1
  H  H18  1  0.17476578  0.20793954  0.82397573  1
  H  H19  1  0.11806549  0.35889951  0.89589268  1
  H  H20  1  0.81542314  0.20743023  0.18284683  1
  H  H21  1  0.88151533  0.35911918  0.12199803  1
  H  H22  1  0.50958380  0.89648852  0.49959300  1
  H  H23  1  0.68550081  0.79243474  0.68215998  1
  H  H24  1  0.61421893  0.64096627  0.62638941  1
  H  H25  1  0.32455950  0.79220913  0.32494764  1
  H  H26  1  0.38583632  0.64103908  0.39211124  1
  H  H27  1  0.00954356  0.60351642  0.00039152  1
  H  H28  1  0.18549158  0.70758175  0.81784528  1
  H  H29  1  0.11417116  0.85904943  0.87362116  1
  H  H30  1  0.82447543  0.70777943  0.17501847  1
  H  H31  1  0.88573335  0.85895103  0.10786641  1
  Sn  Sn32  1  0.49858956  0.99998240  0.99710419  1
  Sn  Sn33  1  0.99859197  0.50003074  0.50290619  1
  Hg  Hg34  1  0.99995295  0.00003795  0.49695638  1
  Hg  Hg35  1  0.49996808  0.49997290  0.00304859  1
  Cl  Cl36  1  0.49889131  0.26128772  0.99591975  1
  Cl  Cl37  1  0.22323136  0.98406953  0.21392850  1
  Cl  Cl38  1  0.71465903  0.01558482  0.27675765  1
  Cl  Cl39  1  0.99885268  0.23871925  0.50412157  1
  Cl  Cl40  1  0.28407752  0.01607046  0.72077281  1
  Cl  Cl41  1  0.77910888  0.98432531  0.78329578  1
  Cl  Cl42  1  0.50115481  0.73871024  0.00466969  1
  Cl  Cl43  1  0.72321720  0.51593218  0.28608523  1
  Cl  Cl44  1  0.21465715  0.48442691  0.22322807  1
  Cl  Cl45  1  0.00122500  0.76129996  0.49530387  1
  Cl  Cl46  1  0.27909123  0.51568888  0.71670463  1
  Cl  Cl47  1  0.78406163  0.48392502  0.77923409  1
