# generated using pymatgen
data_SnH10PtC2(N2Cl3)2
_symmetry_space_group_name_H-M   'P 1'
_cell_length_a   7.84788462
_cell_length_b   9.93536334
_cell_length_c   8.57848666
_cell_angle_alpha   87.93534526
_cell_angle_beta   89.92963666
_cell_angle_gamma   89.99435563
_symmetry_Int_Tables_number   1
_chemical_formula_structural   SnH10PtC2(N2Cl3)2
_chemical_formula_sum   'Sn2 H20 Pt2 C4 N8 Cl12'
_cell_volume   668.44346771
_cell_formula_units_Z   2
loop_
 _symmetry_equiv_pos_site_id
 _symmetry_equiv_pos_as_xyz
  1  'x, y, z'
loop_
 _atom_site_type_symbol
 _atom_site_label
 _atom_site_symmetry_multiplicity
 _atom_site_fract_x
 _atom_site_fract_y
 _atom_site_fract_z
 _atom_site_occupancy
  C  C0  1  0.49014382  0.28718221  0.46954614  1
  C  C1  1  0.99013815  0.21277768  0.03038527  1
  C  C2  1  0.48538339  0.78807003  0.50763546  1
  C  C3  1  0.98527576  0.71188736  0.99229887  1
  N  N4  1  0.55132609  0.24916137  0.60543423  1
  N  N5  1  0.38950231  0.21579301  0.38146998  1
  N  N6  1  0.05200226  0.25122742  0.89476931  1
  N  N7  1  0.88966502  0.28407675  0.11894157  1
  N  N8  1  0.59760577  0.73161434  0.60139999  1
  N  N9  1  0.43971731  0.74252840  0.37124221  1
  N  N10  1  0.09751699  0.76817830  0.89817960  1
  N  N11  1  0.93948704  0.75768398  0.12863371  1
  H  H12  1  0.52896513  0.38615495  0.42261154  1
  H  H13  1  0.62743398  0.31362596  0.66535724  1
  H  H14  1  0.52929769  0.15636760  0.65684235  1
  H  H15  1  0.35159366  0.25676692  0.27630371  1
  H  H16  1  0.33545486  0.12697144  0.41952326  1
  H  H17  1  0.02823632  0.11345937  0.07669377  1
  H  H18  1  0.12785989  0.18671047  0.83447342  1
  H  H19  1  0.03064332  0.34429013  0.84385789  1
  H  H20  1  0.85113881  0.24261386  0.22377129  1
  H  H21  1  0.83619043  0.37325427  0.08152471  1
  H  H22  1  0.42182778  0.87861069  0.54727789  1
  H  H23  1  0.62645702  0.77649688  0.70351288  1
  H  H24  1  0.66316445  0.64706709  0.57268111  1
  H  H25  1  0.35403463  0.79685987  0.30442057  1
  H  H26  1  0.49982104  0.66294240  0.32259201  1
  H  H27  1  0.92175113  0.62126755  0.95299329  1
  H  H28  1  0.12652243  0.72304287  0.79618958  1
  H  H29  1  0.16310075  0.85276562  0.92653259  1
  H  H30  1  0.85406822  0.70325047  0.19584651  1
  H  H31  1  0.99966289  0.83725440  0.17709299  1
  Sn  Sn32  1  0.58612817  0.98849869  0.06687091  1
  Sn  Sn33  1  0.08603493  0.51125563  0.43344159  1
  Pt  Pt34  1  0.01710242  0.02367957  0.51158252  1
  Pt  Pt35  1  0.51718093  0.47639892  0.98869569  1
  Cl  Cl36  1  0.47235898  0.24543512  0.98335553  1
  Cl  Cl37  1  0.25624213  0.96805782  0.14721467  1
  Cl  Cl38  1  0.78681092  0.01420640  0.34452650  1
  Cl  Cl39  1  0.97218230  0.25463812  0.51747706  1
  Cl  Cl40  1  0.24218425  0.03094136  0.68809134  1
  Cl  Cl41  1  0.70930324  0.99149512  0.79552063  1
  Cl  Cl42  1  0.53685787  0.70920341  0.98642651  1
  Cl  Cl43  1  0.75607050  0.53188530  0.35207004  1
  Cl  Cl44  1  0.28628016  0.48614085  0.15563279  1
  Cl  Cl45  1  0.03689967  0.79085882  0.51304657  1
  Cl  Cl46  1  0.21081075  0.50855134  0.70403765  1
  Cl  Cl47  1  0.74258377  0.46886284  0.81207984  1
