# generated using pymatgen
data_BaSnH10C2(N2Cl3)2
_symmetry_space_group_name_H-M   'P 1'
_cell_length_a   8.09431087
_cell_length_b   11.37833992
_cell_length_c   8.14174436
_cell_angle_alpha   89.40094232
_cell_angle_beta   89.99969685
_cell_angle_gamma   89.99419040
_symmetry_Int_Tables_number   1
_chemical_formula_structural   BaSnH10C2(N2Cl3)2
_chemical_formula_sum   'Ba2 Sn2 H20 C4 N8 Cl12'
_cell_volume   749.81220486
_cell_formula_units_Z   2
loop_
 _symmetry_equiv_pos_site_id
 _symmetry_equiv_pos_as_xyz
  1  'x, y, z'
loop_
 _atom_site_type_symbol
 _atom_site_label
 _atom_site_symmetry_multiplicity
 _atom_site_fract_x
 _atom_site_fract_y
 _atom_site_fract_z
 _atom_site_occupancy
  C  C0  1  0.48599378  0.29869956  0.50999192  1
  C  C1  1  0.98593143  0.20134750  0.98994811  1
  C  C2  1  0.50881868  0.80004673  0.48521910  1
  C  C3  1  0.00874687  0.69991336  0.01474586  1
  N  N4  1  0.61211457  0.25155158  0.58720142  1
  N  N5  1  0.41338939  0.25253657  0.38150508  1
  N  N6  1  0.11209095  0.24849386  0.91282457  1
  N  N7  1  0.91334930  0.24744315  0.11850597  1
  N  N8  1  0.57692876  0.75492922  0.61729474  1
  N  N9  1  0.38271201  0.75345274  0.40719476  1
  N  N10  1  0.07692666  0.74512088  0.88276823  1
  N  N11  1  0.88267224  0.74650569  0.09284094  1
  H  H12  1  0.43739773  0.38160832  0.55692011  1
  H  H13  1  0.66680083  0.29562270  0.68115116  1
  H  H14  1  0.66688365  0.17674653  0.54576029  1
  H  H15  1  0.31881643  0.29764880  0.32589481  1
  H  H16  1  0.45826428  0.17830653  0.32744003  1
  H  H17  1  0.93727963  0.11849995  0.94289084  1
  H  H18  1  0.16674019  0.20447958  0.81879414  1
  H  H19  1  0.16692385  0.32322757  0.95440887  1
  H  H20  1  0.81876059  0.20232541  0.17405849  1
  H  H21  1  0.95826237  0.32161107  0.17268501  1
  H  H22  1  0.55997874  0.88194395  0.43505079  1
  H  H23  1  0.66912338  0.80043671  0.67496902  1
  H  H24  1  0.53079360  0.67984587  0.67049275  1
  H  H25  1  0.34125780  0.79239342  0.30148798  1
  H  H26  1  0.32309173  0.68068814  0.45128622  1
  H  H27  1  0.05983157  0.61794134  0.06477202  1
  H  H28  1  0.16909815  0.69961572  0.82503467  1
  H  H29  1  0.03085594  0.82027375  0.82969288  1
  H  H30  1  0.84113940  0.70746917  0.19844629  1
  H  H31  1  0.82311763  0.81934301  0.04887959  1
  Sn  Sn32  1  0.49787708  0.00361769  0.97416494  1
  Sn  Sn33  1  0.99792244  0.49637897  0.52583837  1
  Ba  Ba34  1  0.02043156  0.99783338  0.46848730  1
  Ba  Ba35  1  0.52041729  0.50213965  0.03150972  1
  Cl  Cl36  1  0.50421704  0.24501152  0.97905939  1
  Cl  Cl37  1  0.22902888  0.99331346  0.16666223  1
  Cl  Cl38  1  0.69140595  0.04158872  0.29372381  1
  Cl  Cl39  1  0.00422749  0.25496863  0.52093680  1
  Cl  Cl40  1  0.30453126  0.01549855  0.70748856  1
  Cl  Cl41  1  0.81404315  0.95772433  0.78321973  1
  Cl  Cl42  1  0.48636465  0.76204568  0.01564910  1
  Cl  Cl43  1  0.72910531  0.50673045  0.33327478  1
  Cl  Cl44  1  0.19141275  0.45837392  0.20627312  1
  Cl  Cl45  1  0.98640639  0.73793409  0.48441031  1
  Cl  Cl46  1  0.31404507  0.54232177  0.71678615  1
  Cl  Cl47  1  0.80449092  0.48451378  0.79246376  1
