# generated using pymatgen
data_TlSbH10C2(N2Cl3)2
_symmetry_space_group_name_H-M   'P 1'
_cell_length_a   8.01360332
_cell_length_b   11.11782263
_cell_length_c   7.99524771
_cell_angle_alpha   89.78629631
_cell_angle_beta   89.99903498
_cell_angle_gamma   90.00056082
_symmetry_Int_Tables_number   1
_chemical_formula_structural   TlSbH10C2(N2Cl3)2
_chemical_formula_sum   'Tl2 Sb2 H20 C4 N8 Cl12'
_cell_volume   712.32220776
_cell_formula_units_Z   2
loop_
 _symmetry_equiv_pos_site_id
 _symmetry_equiv_pos_as_xyz
  1  'x, y, z'
loop_
 _atom_site_type_symbol
 _atom_site_label
 _atom_site_symmetry_multiplicity
 _atom_site_fract_x
 _atom_site_fract_y
 _atom_site_fract_z
 _atom_site_occupancy
  C  C0  1  0.49410872  0.29203663  0.49628540  1
  C  C1  1  0.99415138  0.20795658  0.00372479  1
  C  C2  1  0.50582092  0.79207186  0.50354719  1
  C  C3  1  0.00576541  0.70792938  0.99643631  1
  N  N4  1  0.60069028  0.23837904  0.59609601  1
  N  N5  1  0.39187483  0.23876793  0.39217835  1
  N  N6  1  0.10077133  0.26161379  0.90393922  1
  N  N7  1  0.89190809  0.26122752  0.10783026  1
  N  N8  1  0.60663448  0.73870463  0.60944205  1
  N  N9  1  0.40105803  0.73847725  0.40223022  1
  N  N10  1  0.10657546  0.76130599  0.89056707  1
  N  N11  1  0.90096148  0.76151816  0.09774802  1
  H  H12  1  0.48981315  0.38996559  0.50054170  1
  H  H13  1  0.67559383  0.28974208  0.67043380  1
  H  H14  1  0.61202429  0.14725090  0.60569746  1
  H  H15  1  0.31290121  0.29085372  0.32246967  1
  H  H16  1  0.38756318  0.14789752  0.37487771  1
  H  H17  1  0.98983370  0.11003687  0.99944223  1
  H  H18  1  0.17566357  0.21025941  0.82961978  1
  H  H19  1  0.11212900  0.35274652  0.89437758  1
  H  H20  1  0.81291427  0.20914321  0.17750650  1
  H  H21  1  0.88761920  0.35209114  0.12514691  1
  H  H22  1  0.50970168  0.89001495  0.49901883  1
  H  H23  1  0.68064302  0.79082559  0.68381939  1
  H  H24  1  0.61722354  0.64755579  0.62126929  1
  H  H25  1  0.33030711  0.78983783  0.32341768  1
  H  H26  1  0.38397380  0.64762358  0.39930422  1
  H  H27  1  0.00965602  0.60998995  0.00097030  1
  H  H28  1  0.18061597  0.70919357  0.81620310  1
  H  H29  1  0.11716120  0.85245123  0.87874699  1
  H  H30  1  0.83021745  0.71015105  0.17654154  1
  H  H31  1  0.88386692  0.85237031  0.10066393  1
  Sb  Sb32  1  0.49933208  0.00000125  0.99761707  1
  Sb  Sb33  1  0.99933287  0.50000977  0.50238940  1
  Tl  Tl34  1  0.00032542  0.00005264  0.49647683  1
  Tl  Tl35  1  0.50032537  0.49995967  0.00352843  1
  Cl  Cl36  1  0.49850214  0.23376168  0.99399616  1
  Cl  Cl37  1  0.23435754  0.98617123  0.19644213  1
  Cl  Cl38  1  0.69608540  0.01700737  0.26747730  1
  Cl  Cl39  1  0.99846102  0.26625162  0.50604229  1
  Cl  Cl40  1  0.29980489  0.01320208  0.73125176  1
  Cl  Cl41  1  0.76999665  0.98378394  0.79982746  1
  Cl  Cl42  1  0.50175566  0.76626893  0.00542351  1
  Cl  Cl43  1  0.73434031  0.51383494  0.30357292  1
  Cl  Cl44  1  0.19606641  0.48298147  0.23250994  1
  Cl  Cl45  1  0.00181330  0.73374246  0.49452941  1
  Cl  Cl46  1  0.26998887  0.51622434  0.70018204  1
  Cl  Cl47  1  0.79978889  0.48682002  0.76874459  1
