# generated using pymatgen
data_SbH10AuC2(N2Cl3)2
_symmetry_space_group_name_H-M   'P 1'
_cell_length_a   8.08767943
_cell_length_b   10.10716946
_cell_length_c   8.07141930
_cell_angle_alpha   89.78494524
_cell_angle_beta   90.00024990
_cell_angle_gamma   89.99852978
_symmetry_Int_Tables_number   1
_chemical_formula_structural   SbH10AuC2(N2Cl3)2
_chemical_formula_sum   'Sb2 H20 Au2 C4 N8 Cl12'
_cell_volume   659.78179184
_cell_formula_units_Z   2
loop_
 _symmetry_equiv_pos_site_id
 _symmetry_equiv_pos_as_xyz
  1  'x, y, z'
loop_
 _atom_site_type_symbol
 _atom_site_label
 _atom_site_symmetry_multiplicity
 _atom_site_fract_x
 _atom_site_fract_y
 _atom_site_fract_z
 _atom_site_occupancy
  C  C0  1  0.49597956  0.29399538  0.49635072  1
  C  C1  1  0.99600821  0.20601481  0.00366103  1
  C  C2  1  0.50440910  0.79396039  0.50340098  1
  C  C3  1  0.00436481  0.70604066  0.99659251  1
  N  N4  1  0.60249531  0.23614679  0.59497435  1
  N  N5  1  0.39322621  0.23560951  0.39488142  1
  N  N6  1  0.10255028  0.26385957  0.90505917  1
  N  N7  1  0.89326484  0.26440395  0.10512972  1
  N  N8  1  0.60321953  0.73546843  0.60923851  1
  N  N9  1  0.40167652  0.73619773  0.40128183  1
  N  N10  1  0.10317670  0.76453345  0.89075892  1
  N  N11  1  0.90162998  0.76378637  0.09868437  1
  H  H12  1  0.49214525  0.40148184  0.49922644  1
  H  H13  1  0.67501408  0.29408604  0.66917279  1
  H  H14  1  0.61818970  0.13628778  0.60370057  1
  H  H15  1  0.31700374  0.29377671  0.32420644  1
  H  H16  1  0.38322880  0.13562421  0.38120758  1
  H  H17  1  0.99215363  0.09852085  0.00075026  1
  H  H18  1  0.17505557  0.20592301  0.83085232  1
  H  H19  1  0.11826519  0.36371656  0.89636775  1
  H  H20  1  0.81701792  0.20622974  0.17579001  1
  H  H21  1  0.88328554  0.36437493  0.11883007  1
  H  H22  1  0.50847450  0.90145100  0.49968193  1
  H  H23  1  0.67750560  0.79356229  0.68149393  1
  H  H24  1  0.61133667  0.63557281  0.62543446  1
  H  H25  1  0.33063247  0.79429426  0.32534075  1
  H  H26  1  0.38698698  0.63632484  0.39217911  1
  H  H27  1  0.00845833  0.59854492  0.00030236  1
  H  H28  1  0.17748867  0.70645347  0.81850657  1
  H  H29  1  0.11127739  0.86443744  0.87456830  1
  H  H30  1  0.83057654  0.70567927  0.17464041  1
  H  H31  1  0.88690897  0.86365945  0.10780032  1
  Sb  Sb32  1  0.49871937  0.00000436  0.99768088  1
  Sb  Sb33  1  0.99871986  0.50000399  0.50232952  1
  Au  Au34  1  0.99937841  0.00004361  0.49840098  1
  Au  Au35  1  0.49938547  0.49996603  0.00159902  1
  Cl  Cl36  1  0.49951722  0.26571094  0.99680438  1
  Cl  Cl37  1  0.24073298  0.98403793  0.19619288  1
  Cl  Cl38  1  0.69771372  0.01355268  0.25752406  1
  Cl  Cl39  1  0.99949225  0.23429711  0.50324058  1
  Cl  Cl40  1  0.30166705  0.01633803  0.73806438  1
  Cl  Cl41  1  0.75965759  0.98634555  0.79977065  1
  Cl  Cl42  1  0.50111526  0.73422951  0.00370307  1
  Cl  Cl43  1  0.74072437  0.51595899  0.30381447  1
  Cl  Cl44  1  0.19770752  0.48645174  0.24247548  1
  Cl  Cl45  1  0.00116570  0.76578154  0.49626108  1
  Cl  Cl46  1  0.25965143  0.51366261  0.70023823  1
  Cl  Cl47  1  0.80166457  0.48365991  0.76193924  1
