# generated using pymatgen
data_BaH10PbC2(N2Cl3)2
_symmetry_space_group_name_H-M   'P 1'
_cell_length_a   8.06707742
_cell_length_b   11.53852203
_cell_length_c   8.10828289
_cell_angle_alpha   90.29019604
_cell_angle_beta   89.99810691
_cell_angle_gamma   89.99300870
_symmetry_Int_Tables_number   1
_chemical_formula_structural   BaH10PbC2(N2Cl3)2
_chemical_formula_sum   'Ba2 H20 Pb2 C4 N8 Cl12'
_cell_volume   754.72672183
_cell_formula_units_Z   2
loop_
 _symmetry_equiv_pos_site_id
 _symmetry_equiv_pos_as_xyz
  1  'x, y, z'
loop_
 _atom_site_type_symbol
 _atom_site_label
 _atom_site_symmetry_multiplicity
 _atom_site_fract_x
 _atom_site_fract_y
 _atom_site_fract_z
 _atom_site_occupancy
  C  C0  1  0.49606630  0.30730595  0.51039175  1
  C  C1  1  0.99605864  0.19270612  0.98954860  1
  C  C2  1  0.50578897  0.80689191  0.49102890  1
  C  C3  1  0.00570787  0.69309889  0.00896953  1
  N  N4  1  0.61622719  0.25787412  0.59394210  1
  N  N5  1  0.41830305  0.25931487  0.38576278  1
  N  N6  1  0.11628146  0.24212375  0.90608465  1
  N  N7  1  0.91828986  0.24066262  0.11421249  1
  N  N8  1  0.58417409  0.75910379  0.61525613  1
  N  N9  1  0.38524805  0.75745523  0.40809952  1
  N  N10  1  0.08416885  0.74096375  0.88485730  1
  N  N11  1  0.88516494  0.74250845  0.09196187  1
  H  H12  1  0.45759949  0.39411880  0.54906439  1
  H  H13  1  0.66894714  0.30074037  0.69125220  1
  H  H14  1  0.66429556  0.17984537  0.55873142  1
  H  H15  1  0.33138284  0.30609289  0.32233376  1
  H  H16  1  0.45177963  0.17941940  0.34253396  1
  H  H17  1  0.95754525  0.10593248  0.95076742  1
  H  H18  1  0.16899037  0.19928791  0.80873321  1
  H  H19  1  0.16440014  0.32010794  0.94140781  1
  H  H20  1  0.83131808  0.19389052  0.17756845  1
  H  H21  1  0.95178344  0.32052090  0.15753866  1
  H  H22  1  0.54451171  0.89346427  0.45283400  1
  H  H23  1  0.67600945  0.80465479  0.67399507  1
  H  H24  1  0.54733398  0.68129117  0.66240363  1
  H  H25  1  0.32552874  0.80196620  0.31712611  1
  H  H26  1  0.34187681  0.67764528  0.43956032  1
  H  H27  1  0.04436612  0.60647384  0.04701442  1
  H  H28  1  0.17600766  0.69543367  0.82607331  1
  H  H29  1  0.04738803  0.81883880  0.83784002  1
  H  H30  1  0.82537137  0.69792088  0.18280934  1
  H  H31  1  0.84185433  0.82237268  0.06066701  1
  Ba  Ba32  1  0.48809754  0.00197411  0.97709174  1
  Ba  Ba33  1  0.98818699  0.49804339  0.52288545  1
  Pb  Pb34  1  0.00637039  0.99773302  0.48029219  1
  Pb  Pb35  1  0.50640692  0.50226930  0.01966699  1
  Cl  Cl36  1  0.50828197  0.25877641  0.99135269  1
  Cl  Cl37  1  0.18489190  0.97285073  0.18862621  1
  Cl  Cl38  1  0.69109393  0.04185493  0.29750723  1
  Cl  Cl39  1  0.00823590  0.24123323  0.50862414  1
  Cl  Cl40  1  0.29732783  0.02551685  0.66444537  1
  Cl  Cl41  1  0.81566447  0.95793134  0.79535880  1
  Cl  Cl42  1  0.49319183  0.74603846  0.01266112  1
  Cl  Cl43  1  0.68502338  0.52711415  0.31127327  1
  Cl  Cl44  1  0.19114655  0.45812069  0.20243142  1
  Cl  Cl45  1  0.99323719  0.75397794  0.48739659  1
  Cl  Cl46  1  0.31572341  0.54213394  0.70461663  1
  Cl  Cl47  1  0.79736973  0.47446687  0.83550476  1
