# generated using pymatgen
data_BaHgH10C2(N2Cl3)2
_symmetry_space_group_name_H-M   'P 1'
_cell_length_a   7.50694529
_cell_length_b   10.91832141
_cell_length_c   8.57330910
_cell_angle_alpha   89.76272636
_cell_angle_beta   90.00392923
_cell_angle_gamma   89.99740343
_symmetry_Int_Tables_number   1
_chemical_formula_structural   BaHgH10C2(N2Cl3)2
_chemical_formula_sum   'Ba2 Hg2 H20 C4 N8 Cl12'
_cell_volume   702.69017675
_cell_formula_units_Z   2
loop_
 _symmetry_equiv_pos_site_id
 _symmetry_equiv_pos_as_xyz
  1  'x, y, z'
loop_
 _atom_site_type_symbol
 _atom_site_label
 _atom_site_symmetry_multiplicity
 _atom_site_fract_x
 _atom_site_fract_y
 _atom_site_fract_z
 _atom_site_occupancy
  C  C0  1  0.47917195  0.29546853  0.50241975  1
  C  C1  1  0.97915066  0.20455621  0.99752595  1
  C  C2  1  0.53142273  0.78670039  0.50235266  1
  C  C3  1  0.03132372  0.71327896  0.99766253  1
  N  N4  1  0.56753764  0.27538548  0.63277424  1
  N  N5  1  0.48475209  0.22621709  0.37863125  1
  N  N6  1  0.06759740  0.22466834  0.86721646  1
  N  N7  1  0.98470088  0.27375128  0.12135806  1
  N  N8  1  0.55559887  0.71740473  0.62667546  1
  N  N9  1  0.41533165  0.76620183  0.39178309  1
  N  N10  1  0.05562972  0.78260408  0.87338660  1
  N  N11  1  0.91531053  0.73386146  0.10827729  1
  H  H12  1  0.39519034  0.37696236  0.49762185  1
  H  H13  1  0.55166737  0.33367189  0.72468858  1
  H  H14  1  0.65592296  0.20451590  0.64376057  1
  H  H15  1  0.42315080  0.25507125  0.27850856  1
  H  H16  1  0.56450887  0.15002267  0.36789560  1
  H  H17  1  0.89514146  0.12308699  0.00221603  1
  H  H18  1  0.05177784  0.16641464  0.77524331  1
  H  H19  1  0.15604101  0.29552376  0.85629932  1
  H  H20  1  0.92304144  0.24486542  0.22141787  1
  H  H21  1  0.06449237  0.34991260  0.13217296  1
  H  H22  1  0.61656489  0.86695718  0.48910276  1
  H  H23  1  0.64744183  0.74381864  0.70693550  1
  H  H24  1  0.47434522  0.64489431  0.65637390  1
  H  H25  1  0.39994316  0.82892632  0.30411123  1
  H  H26  1  0.33098675  0.69272797  0.39036039  1
  H  H27  1  0.11629023  0.63291324  0.01083287  1
  H  H28  1  0.14737434  0.75610736  0.79308197  1
  H  H29  1  0.97445509  0.85517087  0.84371842  1
  H  H30  1  0.89976405  0.67109601  0.19589188  1
  H  H31  1  0.83119361  0.80747215  0.10981876  1
  Ba  Ba32  1  0.46503504  0.00794264  0.94933549  1
  Ba  Ba33  1  0.96504176  0.49199171  0.55065600  1
  Hg  Hg34  1  0.00936297  0.99016470  0.45027332  1
  Hg  Hg35  1  0.50931256  0.50980389  0.04976534  1
  Cl  Cl36  1  0.46319817  0.27732882  0.01508442  1
  Cl  Cl37  1  0.19076144  0.98475328  0.19206428  1
  Cl  Cl38  1  0.71423253  -0.00120041  0.24211246  1
  Cl  Cl39  1  0.96308607  0.22262432  0.48488598  1
  Cl  Cl40  1  0.28706133  0.00951101  0.64195891  1
  Cl  Cl41  1  0.79058421  0.99470350  0.74597778  1
  Cl  Cl42  1  0.48642411  0.73935974  0.00624321  1
  Cl  Cl43  1  0.69080426  0.51527448  0.30792996  1
  Cl  Cl44  1  0.21422754  0.50112329  0.25784356  1
  Cl  Cl45  1  0.98650471  0.76060289  0.49382440  1
  Cl  Cl46  1  0.29055474  0.50530352  0.75401813  1
  Cl  Cl47  1  0.78700646  0.49054571  0.85801584  1
