# generated using pymatgen
data_BaH10PtC2(N2Cl3)2
_symmetry_space_group_name_H-M   'P 1'
_cell_length_a   7.87600422
_cell_length_b   10.31990793
_cell_length_c   8.74002669
_cell_angle_alpha   92.50408236
_cell_angle_beta   90.01083919
_cell_angle_gamma   89.98680783
_symmetry_Int_Tables_number   1
_chemical_formula_structural   BaH10PtC2(N2Cl3)2
_chemical_formula_sum   'Ba2 H20 Pt2 C4 N8 Cl12'
_cell_volume   709.70783801
_cell_formula_units_Z   2
loop_
 _symmetry_equiv_pos_site_id
 _symmetry_equiv_pos_as_xyz
  1  'x, y, z'
loop_
 _atom_site_type_symbol
 _atom_site_label
 _atom_site_symmetry_multiplicity
 _atom_site_fract_x
 _atom_site_fract_y
 _atom_site_fract_z
 _atom_site_occupancy
  C  C0  1  0.48987208  0.29289115  0.49632478  1
  C  C1  1  0.99011573  0.20713870  0.00361359  1
  C  C2  1  0.53075623  0.79601924  0.49869086  1
  C  C3  1  0.03060047  0.70390646  0.00120953  1
  N  N4  1  0.58973787  0.23379585  0.59275989  1
  N  N5  1  0.42820068  0.24187935  0.36890411  1
  N  N6  1  0.09016264  0.26622524  0.90737886  1
  N  N7  1  0.92879795  0.25798475  0.13125406  1
  N  N8  1  0.58587971  0.74449231  0.62653512  1
  N  N9  1  0.40794526  0.74974822  0.41273812  1
  N  N10  1  0.08569854  0.75541766  0.87338634  1
  N  N11  1  0.90777464  0.75018679  0.08713139  1
  H  H12  1  0.45273787  0.39264576  0.52775532  1
  H  H13  1  0.62702977  0.28227773  0.69150501  1
  H  H14  1  0.64663933  0.14725840  0.56335534  1
  H  H15  1  0.35555433  0.29928503  0.30160362  1
  H  H16  1  0.43716764  0.14561830  0.33480364  1
  H  H17  1  0.95255542  0.10755285  0.97182519  1
  H  H18  1  0.12700467  0.21798204  0.80834586  1
  H  H19  1  0.14728948  0.35261994  0.93699265  1
  H  H20  1  0.85591595  0.20063120  0.19836949  1
  H  H21  1  0.93809131  0.35416713  0.16559495  1
  H  H22  1  0.59560572  0.88303708  0.46133691  1
  H  H23  1  0.67350617  0.79702175  0.69141592  1
  H  H24  1  0.51845753  0.67119751  0.67473929  1
  H  H25  1  0.36487364  0.80442894  0.32426427  1
  H  H26  1  0.34036997  0.67030561  0.44368460  1
  H  H27  1  0.09547226  0.61687550  0.03857760  1
  H  H28  1  0.17354094  0.70299974  0.80863094  1
  H  H29  1  0.01839769  0.82883136  0.82523420  1
  H  H30  1  0.86474809  0.69550056  0.17559230  1
  H  H31  1  0.84019853  0.82965945  0.05619649  1
  Ba  Ba32  1  0.42329967  0.96942232  0.92745454  1
  Ba  Ba33  1  0.92331387  0.53087119  0.57268103  1
  Pt  Pt34  1  0.98993849  0.02695841  0.49175538  1
  Pt  Pt35  1  0.49009869  0.47309517  0.00831752  1
  Cl  Cl36  1  0.51036109  0.24947181  0.99178557  1
  Cl  Cl37  1  0.27605215  0.98142254  0.22332505  1
  Cl  Cl38  1  0.76131183  0.03272749  0.32516029  1
  Cl  Cl39  1  0.00998208  0.25059057  0.50882747  1
  Cl  Cl40  1  0.22526721  0.02207944  0.65147165  1
  Cl  Cl41  1  0.78354467  0.95357287  0.83732266  1
  Cl  Cl42  1  0.48464334  0.69718329  0.02554281  1
  Cl  Cl43  1  0.77640760  0.51846909  0.27662124  1
  Cl  Cl44  1  0.26158831  0.46754284  0.17498927  1
  Cl  Cl45  1  0.98462582  0.80289152  0.47406620  1
  Cl  Cl46  1  0.28365153  0.54649904  0.66259959  1
  Cl  Cl47  1  0.72523489  0.47768380  0.84843427  1
