# generated using pymatgen
data_SrZnH12C2(I3N)2
_symmetry_space_group_name_H-M   'P 1'
_cell_length_a   8.39976563
_cell_length_b   12.18082157
_cell_length_c   8.28754319
_cell_angle_alpha   88.62212302
_cell_angle_beta   90.00728402
_cell_angle_gamma   90.01163370
_symmetry_Int_Tables_number   1
_chemical_formula_structural   SrZnH12C2(I3N)2
_chemical_formula_sum   'Sr2 Zn2 H24 C4 I12 N4'
_cell_volume   847.70344443
_cell_formula_units_Z   2
loop_
 _symmetry_equiv_pos_site_id
 _symmetry_equiv_pos_as_xyz
  1  'x, y, z'
loop_
 _atom_site_type_symbol
 _atom_site_label
 _atom_site_symmetry_multiplicity
 _atom_site_fract_x
 _atom_site_fract_y
 _atom_site_fract_z
 _atom_site_occupancy
  C  C0  1  0.39634809  0.25001088  0.41457723  1
  C  C1  1  0.89748500  0.25014459  0.08650213  1
  C  C2  1  0.60364913  0.74999066  0.58543738  1
  C  C3  1  0.10252141  0.74985584  0.91351029  1
  N  N4  1  0.53797819  0.24940251  0.52118040  1
  N  N5  1  0.03840927  0.25063005  0.97907073  1
  N  N6  1  0.46201776  0.75060462  0.47883570  1
  N  N7  1  0.96159783  0.74936737  0.02094177  1
  H  H8  1  0.43617918  0.25045884  0.28870947  1
  H  H9  1  0.32692823  0.17567023  0.44029992  1
  H  H10  1  0.32535837  0.32310470  0.43781403  1
  H  H11  1  0.60764251  0.18096012  0.49838956  1
  H  H12  1  0.60732877  0.31898467  0.49815225  1
  H  H13  1  0.50765508  0.24734470  0.64356214  1
  H  H14  1  0.93812312  0.24973560  0.21210554  1
  H  H15  1  0.82619220  0.17706464  0.06380876  1
  H  H16  1  0.82804250  0.32452209  0.06118717  1
  H  H17  1  0.10779232  0.18100526  0.00177125  1
  H  H18  1  0.10836207  0.31904804  0.00139755  1
  H  H19  1  0.00742757  0.25265525  0.85684069  1
  H  H20  1  0.56381969  0.74954541  0.71130627  1
  H  H21  1  0.67463671  0.67689800  0.56220129  1
  H  H22  1  0.67307085  0.82433250  0.55971338  1
  H  H23  1  0.39235546  0.81904261  0.50162740  1
  H  H24  1  0.39266627  0.68101779  0.50186545  1
  H  H25  1  0.49233980  0.75265899  0.35645424  1
  H  H26  1  0.06188305  0.75026773  0.78790691  1
  H  H27  1  0.17381399  0.82293586  0.93620770  1
  H  H28  1  0.17196458  0.67547862  0.93882096  1
  H  H29  1  0.89221164  0.81899045  0.99824460  1
  H  H30  1  0.89164692  0.68094767  0.99861368  1
  H  H31  1  0.99257988  0.74734096  0.14317229  1
  Zn  Zn32  1  0.50000233  0.00001223  0.00000949  1
  Zn  Zn33  1  0.99999304  0.50000562  0.49998770  1
  Sr  Sr34  1  0.00000140  0.00000442  0.50000962  1
  Sr  Sr35  1  0.49999991  0.50000924  0.99999473  1
  I  I36  1  0.47602150  0.23765912  0.94402996  1
  I  I37  1  0.20236596  0.00781502  0.16494496  1
  I  I38  1  0.66601258  0.01692145  0.30356985  1
  I  I39  1  0.97541243  0.26234360  0.55650600  1
  I  I40  1  0.33399001  0.98308562  0.69644824  1
  I  I41  1  0.79763849  0.99218728  0.83507393  1
  I  I42  1  0.52398397  0.76235054  0.05598832  1
  I  I43  1  0.70243310  0.49204556  0.33492769  1
  I  I44  1  0.16618182  0.48316094  0.19651450  1
  I  I45  1  0.02458294  0.73766226  0.44350445  1
  I  I46  1  0.29755835  0.50795603  0.66507287  1
  I  I47  1  0.83381846  0.51684209  0.80348618  1
