# generated using pymatgen
data_BaH10OsC2(N2Cl3)2
_symmetry_space_group_name_H-M   'P 1'
_cell_length_a   7.73010998
_cell_length_b   10.67486156
_cell_length_c   7.71470955
_cell_angle_alpha   90.14556276
_cell_angle_beta   89.99992444
_cell_angle_gamma   89.99757048
_symmetry_Int_Tables_number   1
_chemical_formula_structural   BaH10OsC2(N2Cl3)2
_chemical_formula_sum   'Ba2 H20 Os2 C4 N8 Cl12'
_cell_volume   636.59922045
_cell_formula_units_Z   2
loop_
 _symmetry_equiv_pos_site_id
 _symmetry_equiv_pos_as_xyz
  1  'x, y, z'
loop_
 _atom_site_type_symbol
 _atom_site_label
 _atom_site_symmetry_multiplicity
 _atom_site_fract_x
 _atom_site_fract_y
 _atom_site_fract_z
 _atom_site_occupancy
  C  C0  1  0.49500858  0.29345616  0.49672391  1
  C  C1  1  0.99505931  0.20651163  0.00327164  1
  C  C2  1  0.50549810  0.79357326  0.50374662  1
  C  C3  1  0.00544471  0.70643252  0.99624283  1
  N  N4  1  0.60345401  0.23738178  0.60118959  1
  N  N5  1  0.39005495  0.23753272  0.38837384  1
  N  N6  1  0.10353259  0.26261681  0.89884702  1
  N  N7  1  0.89010661  0.26246976  0.11162686  1
  N  N8  1  0.61043785  0.73763719  0.61187310  1
  N  N9  1  0.39603889  0.73744542  0.40009280  1
  N  N10  1  0.11038282  0.76236772  0.88814487  1
  N  N11  1  0.89595333  0.76254995  0.09989037  1
  H  H12  1  0.49168850  0.39544121  0.50042673  1
  H  H13  1  0.67203935  0.29055806  0.68737609  1
  H  H14  1  0.63043943  0.14379944  0.59625146  1
  H  H15  1  0.31850106  0.29169290  0.30615711  1
  H  H16  1  0.36751924  0.14319685  0.38679655  1
  H  H17  1  0.99171455  0.10457854  0.99953515  1
  H  H18  1  0.17211491  0.20943647  0.81264309  1
  H  H19  1  0.13054521  0.35619819  0.90381264  1
  H  H20  1  0.81852261  0.20830555  0.19381739  1
  H  H21  1  0.86758409  0.35681210  0.11322715  1
  H  H22  1  0.51002341  0.89544020  0.49952957  1
  H  H23  1  0.69701199  0.79143450  0.67907406  1
  H  H24  1  0.60609634  0.64416407  0.63989422  1
  H  H25  1  0.31372958  0.79094231  0.32781134  1
  H  H26  1  0.39429583  0.64297519  0.37905483  1
  H  H27  1  0.00997666  0.60456239  0.00045829  1
  H  H28  1  0.19698320  0.70858058  0.82094982  1
  H  H29  1  0.10604214  0.85584894  0.86013495  1
  H  H30  1  0.81364560  0.70904857  0.17215130  1
  H  H31  1  0.89419728  0.85702102  0.12093919  1
  Ba  Ba32  1  0.49823573  0.00000399  0.99713303  1
  Ba  Ba33  1  0.99823805  0.50000532  0.50288072  1
  Os  Os34  1  0.99990589  0.99998845  0.49818152  1
  Os  Os35  1  0.49989980  0.50001848  0.00182302  1
  Cl  Cl36  1  0.49897498  0.27561844  0.99691746  1
  Cl  Cl37  1  0.19173014  0.99110396  0.24998246  1
  Cl  Cl38  1  0.75176230  0.00865597  0.30574725  1
  Cl  Cl39  1  0.99892696  0.22438912  0.50312462  1
  Cl  Cl40  1  0.24829846  0.00941675  0.68921395  1
  Cl  Cl41  1  0.80878190  0.99067657  0.74726585  1
  Cl  Cl42  1  0.50051205  0.72444630  0.00524534  1
  Cl  Cl43  1  0.69172361  0.50890036  0.25002413  1
  Cl  Cl44  1  0.25174715  0.49135721  0.19424748  1
  Cl  Cl45  1  0.00056540  0.77556165  0.49472758  1
  Cl  Cl46  1  0.30878352  0.50932932  0.75273478  1
  Cl  Cl47  1  0.74829068  0.49057908  0.81079117  1
