# generated using pymatgen
data_HfHgH10C2(N2Cl3)2
_symmetry_space_group_name_H-M   'P 1'
_cell_length_a   6.95454648
_cell_length_b   11.27896183
_cell_length_c   8.94628073
_cell_angle_alpha   87.28926244
_cell_angle_beta   90.00161404
_cell_angle_gamma   90.00550605
_symmetry_Int_Tables_number   1
_chemical_formula_structural   HfHgH10C2(N2Cl3)2
_chemical_formula_sum   'Hf2 Hg2 H20 C4 N8 Cl12'
_cell_volume   700.96159828
_cell_formula_units_Z   2
loop_
 _symmetry_equiv_pos_site_id
 _symmetry_equiv_pos_as_xyz
  1  'x, y, z'
loop_
 _atom_site_type_symbol
 _atom_site_label
 _atom_site_symmetry_multiplicity
 _atom_site_fract_x
 _atom_site_fract_y
 _atom_site_fract_z
 _atom_site_occupancy
  C  C0  1  0.47076766  0.27880571  0.47412611  1
  C  C1  1  0.97085319  0.22118886  0.02583560  1
  C  C2  1  0.53629505  0.80088300  0.49655791  1
  C  C3  1  0.03622910  0.69912390  1.00347577  1
  N  N4  1  0.54292136  0.25218387  0.60659040  1
  N  N5  1  0.47899052  0.21166332  0.35769272  1
  N  N6  1  0.04304468  0.24787363  0.89340234  1
  N  N7  1  0.97902937  0.28827907  0.14231801  1
  N  N8  1  0.53523296  0.73305936  0.61942549  1
  N  N9  1  0.44405702  0.77780218  0.37316164  1
  N  N10  1  0.03519454  0.76694089  0.88060374  1
  N  N11  1  0.94401138  0.72222212  0.12686916  1
  H  H12  1  0.39778010  0.36403827  0.45879330  1
  H  H13  1  0.53094365  0.31211719  0.68797274  1
  H  H14  1  0.61618694  0.17558584  0.63334632  1
  H  H15  1  0.42291463  0.24208960  0.25780070  1
  H  H16  1  0.54698553  0.13135120  0.35719774  1
  H  H17  1  0.89787036  0.13593616  0.04108858  1
  H  H18  1  0.03109164  0.18798192  0.81197263  1
  H  H19  1  0.11631195  0.32449577  0.86671332  1
  H  H20  1  0.92290400  0.25779227  0.24217700  1
  H  H21  1  0.04699689  0.36859723  0.14289576  1
  H  H22  1  0.62226465  0.88203647  0.49602733  1
  H  H23  1  0.60529484  0.75885036  0.71255260  1
  H  H24  1  0.46134917  0.65416884  0.62970826  1
  H  H25  1  0.45464035  0.83599629  0.28270112  1
  H  H26  1  0.36047303  0.70380596  0.36446124  1
  H  H27  1  0.12214436  0.61796247  0.00403011  1
  H  H28  1  0.10525934  0.74113046  0.78747880  1
  H  H29  1  0.96136671  0.84583213  0.87030045  1
  H  H30  1  0.95454133  0.66404170  0.21732792  1
  H  H31  1  0.86046430  0.79624112  0.13555096  1
  Hf  Hf32  1  0.48263852  0.99088120  0.95607998  1
  Hf  Hf33  1  0.98259307  0.50911441  0.54391203  1
  Hg  Hg34  1  0.00138265  0.01758059  0.44690770  1
  Hg  Hg35  1  0.50129631  0.48241101  0.05308300  1
  Cl  Cl36  1  0.49679570  0.20569648  0.97172758  1
  Cl  Cl37  1  0.20020984  0.97669174  0.10986522  1
  Cl  Cl38  1  0.68441593  0.98348139  0.18925938  1
  Cl  Cl39  1  0.99667668  0.29429934  0.52825979  1
  Cl  Cl40  1  0.30512295  0.99978375  0.72642173  1
  Cl  Cl41  1  0.78286350  0.00545895  0.80179436  1
  Cl  Cl42  1  0.51955908  0.77557131  0.96927526  1
  Cl  Cl43  1  0.70015516  0.52332284  0.39012942  1
  Cl  Cl44  1  0.18434665  0.51652666  0.31073063  1
  Cl  Cl45  1  0.01960498  0.72442405  0.53074347  1
  Cl  Cl46  1  0.28284296  0.49453351  0.69818468  1
  Cl  Cl47  1  0.80510477  0.50020861  0.77357474  1
