# generated using pymatgen
data_HfH10PtC2(N2Cl3)2
_symmetry_space_group_name_H-M   'P 1'
_cell_length_a   8.13449603
_cell_length_b   9.20149498
_cell_length_c   8.59197408
_cell_angle_alpha   91.69161959
_cell_angle_beta   89.99680410
_cell_angle_gamma   90.02212679
_symmetry_Int_Tables_number   1
_chemical_formula_structural   HfH10PtC2(N2Cl3)2
_chemical_formula_sum   'Hf2 H20 Pt2 C4 N8 Cl12'
_cell_volume   642.82485267
_cell_formula_units_Z   2
loop_
 _symmetry_equiv_pos_site_id
 _symmetry_equiv_pos_as_xyz
  1  'x, y, z'
loop_
 _atom_site_type_symbol
 _atom_site_label
 _atom_site_symmetry_multiplicity
 _atom_site_fract_x
 _atom_site_fract_y
 _atom_site_fract_z
 _atom_site_occupancy
  C  C0  1  0.49345893  0.26953667  0.47180928  1
  C  C1  1  0.99353184  0.23024041  0.02817696  1
  C  C2  1  0.52529251  0.80363684  0.50015695  1
  C  C3  1  0.02570794  0.69658794  0.99967238  1
  N  N4  1  0.57270051  0.24662108  0.60178286  1
  N  N5  1  0.36159771  0.19985573  0.42329929  1
  N  N6  1  0.07314111  0.25366751  0.89851846  1
  N  N7  1  0.86182603  0.29996284  0.07686156  1
  N  N8  1  0.59855021  0.74258528  0.61721414  1
  N  N9  1  0.43015444  0.73748676  0.39746328  1
  N  N10  1  0.09803992  0.75798839  0.88223536  1
  N  N11  1  0.92983559  0.76209997  0.10210323  1
  H  H12  1  0.54206318  0.35311049  0.39636484  1
  H  H13  1  0.67281904  0.30853214  0.63157148  1
  H  H14  1  0.53286695  0.17159578  0.67876160  1
  H  H15  1  0.30899625  0.23215895  0.32253950  1
  H  H16  1  0.29494251  0.12498810  0.48504564  1
  H  H17  1  0.04169116  0.14618266  0.10321527  1
  H  H18  1  0.17305400  0.19163280  0.86852840  1
  H  H19  1  0.03376432  0.32913700  0.82187196  1
  H  H20  1  0.80884026  0.26721835  0.17728406  1
  H  H21  1  0.79558025  0.37519287  0.01534913  1
  H  H22  1  0.54830541  0.91892778  0.48499223  1
  H  H23  1  0.67108083  0.80529827  0.68944464  1
  H  H24  1  0.58416928  0.63606083  0.64357132  1
  H  H25  1  0.37395857  0.79677445  0.31350692  1
  H  H26  1  0.40075521  0.62986305  0.40036756  1
  H  H27  1  0.05039623  0.58165390  0.01540039  1
  H  H28  1  0.17117929  0.69576384  0.81018025  1
  H  H29  1  0.08182272  0.86411973  0.85516635  1
  H  H30  1  0.87437354  0.70260500  0.18636609  1
  H  H31  1  0.89902193  0.86938866  0.09866098  1
  Hf  Hf32  1  0.51486433  0.99221783  0.00565125  1
  Hf  Hf33  1  0.01501375  0.50769439  0.49469344  1
  Pt  Pt34  1  0.01481944  0.00716042  0.49862463  1
  Pt  Pt35  1  0.51467658  0.49280587  0.00192954  1
  Cl  Cl36  1  0.45966534  0.25671776  0.03151383  1
  Cl  Cl37  1  0.26448124  0.96169812  0.15899947  1
  Cl  Cl38  1  0.68761089  0.01761126  0.23531482  1
  Cl  Cl39  1  0.95937730  0.24320156  0.46957589  1
  Cl  Cl40  1  0.34231908  0.00386716  0.76720484  1
  Cl  Cl41  1  0.75642335  0.01185100  0.83600177  1
  Cl  Cl42  1  0.54808534  0.73251166  0.98963232  1
  Cl  Cl43  1  0.76454780  0.53801361  0.34133716  1
  Cl  Cl44  1  0.18734291  0.48196588  0.26484355  1
  Cl  Cl45  1  0.04849431  0.76743354  0.50990062  1
  Cl  Cl46  1  0.25651773  0.48834263  0.66424422  1
  Cl  Cl47  1  0.84226231  0.49649622  0.73315506  1
