# generated using pymatgen
data_TlH10IrC2(N2Cl3)2
_symmetry_space_group_name_H-M   'P 1'
_cell_length_a   7.82643845
_cell_length_b   10.76489713
_cell_length_c   7.80751950
_cell_angle_alpha   89.67920236
_cell_angle_beta   89.99980213
_cell_angle_gamma   90.00219956
_symmetry_Int_Tables_number   1
_chemical_formula_structural   TlH10IrC2(N2Cl3)2
_chemical_formula_sum   'Tl2 H20 Ir2 C4 N8 Cl12'
_cell_volume   657.77949097
_cell_formula_units_Z   2
loop_
 _symmetry_equiv_pos_site_id
 _symmetry_equiv_pos_as_xyz
  1  'x, y, z'
loop_
 _atom_site_type_symbol
 _atom_site_label
 _atom_site_symmetry_multiplicity
 _atom_site_fract_x
 _atom_site_fract_y
 _atom_site_fract_z
 _atom_site_occupancy
  C  C0  1  0.49470039  0.29299969  0.49599627  1
  C  C1  1  0.99474686  0.20700048  0.00401598  1
  C  C2  1  0.50499456  0.79298053  0.50324138  1
  C  C3  1  0.00493687  0.70701791  0.99675776  1
  N  N4  1  0.60391248  0.23767523  0.59800699  1
  N  N5  1  0.38982908  0.23794649  0.39007096  1
  N  N6  1  0.10397724  0.26233503  0.90203766  1
  N  N7  1  0.88986039  0.26204610  0.10994545  1
  N  N8  1  0.60817150  0.73780544  0.61142832  1
  N  N9  1  0.39851064  0.73772770  0.39899366  1
  N  N10  1  0.10812889  0.76220636  0.88856992  1
  N  N11  1  0.89843530  0.76225912  0.10097704  1
  H  H12  1  0.49044908  0.39408308  0.49974910  1
  H  H13  1  0.68413630  0.29085911  0.66999086  1
  H  H14  1  0.60949039  0.14380433  0.61613468  1
  H  H15  1  0.30523519  0.29159486  0.32287126  1
  H  H16  1  0.38997160  0.14479869  0.36607299  1
  H  H17  1  0.99046805  0.10592699  0.00025235  1
  H  H18  1  0.18420402  0.20914260  0.83005284  1
  H  H19  1  0.10958043  0.35620332  0.88392058  1
  H  H20  1  0.80525901  0.20841127  0.17711062  1
  H  H21  1  0.89002428  0.35520679  0.13394974  1
  H  H22  1  0.50809001  0.89409695  0.49940124  1
  H  H23  1  0.67949293  0.79160618  0.69156701  1
  H  H24  1  0.62723542  0.64400346  0.61729871  1
  H  H25  1  0.32992901  0.79081213  0.31486222  1
  H  H26  1  0.37512238  0.64448030  0.40007319  1
  H  H27  1  0.00805651  0.60590767  0.00059590  1
  H  H28  1  0.17947067  0.70841546  0.80845508  1
  H  H29  1  0.12717881  0.85601043  0.88270722  1
  H  H30  1  0.82985399  0.70916949  0.18510206  1
  H  H31  1  0.87503266  0.85550925  0.09989435  1
  Ir  Ir32  1  0.49986140  0.00002759  0.99805349  1
  Ir  Ir33  1  0.99985915  0.49997417  0.50194789  1
  Tl  Tl34  1  0.00171736  0.00004014  0.49641392  1
  Tl  Tl35  1  0.50172330  0.49996278  0.00358135  1
  Cl  Cl36  1  0.49924205  0.21923101  0.99432039  1
  Cl  Cl37  1  0.25779976  0.99200868  0.18094298  1
  Cl  Cl38  1  0.68245088  0.00821493  0.24079081  1
  Cl  Cl39  1  0.99918799  0.28076937  0.50571412  1
  Cl  Cl40  1  0.31676736  0.00745060  0.75573522  1
  Cl  Cl41  1  0.74194245  0.99253895  0.81463181  1
  Cl  Cl42  1  0.50099310  0.78083586  0.00311256  1
  Cl  Cl43  1  0.75779357  0.50798069  0.31906075  1
  Cl  Cl44  1  0.18244466  0.49178542  0.25920677  1
  Cl  Cl45  1  0.00104887  0.71916569  0.49685235  1
  Cl  Cl46  1  0.24193861  0.50747770  0.68537104  1
  Cl  Cl47  1  0.81676389  0.49255694  0.74426593  1
