# generated using pymatgen
data_H10PtPbC2(N2Cl3)2
_symmetry_space_group_name_H-M   'P 1'
_cell_length_a   7.80528887
_cell_length_b   9.98983407
_cell_length_c   8.61716870
_cell_angle_alpha   92.02795538
_cell_angle_beta   89.98637111
_cell_angle_gamma   90.01440224
_symmetry_Int_Tables_number   1
_chemical_formula_structural   H10PtPbC2(N2Cl3)2
_chemical_formula_sum   'H20 Pt2 Pb2 C4 N8 Cl12'
_cell_volume   671.49028377
_cell_formula_units_Z   2
loop_
 _symmetry_equiv_pos_site_id
 _symmetry_equiv_pos_as_xyz
  1  'x, y, z'
loop_
 _atom_site_type_symbol
 _atom_site_label
 _atom_site_symmetry_multiplicity
 _atom_site_fract_x
 _atom_site_fract_y
 _atom_site_fract_z
 _atom_site_occupancy
  C  C0  1  0.51699008  0.28799752  0.49300199  1
  C  C1  1  0.01711869  0.21208875  0.00712101  1
  C  C2  1  0.50612452  0.78545436  0.52574683  1
  C  C3  1  0.00616470  0.71443066  0.97442425  1
  N  N4  1  0.56648290  0.24026911  0.62716043  1
  N  N5  1  0.40298629  0.23283884  0.40036899  1
  N  N6  1  0.06656561  0.25987292  0.87293538  1
  N  N7  1  0.90307807  0.26714578  0.09979911  1
  N  N8  1  0.60635246  0.71555348  0.61565790  1
  N  N9  1  0.44537341  0.74594561  0.39071919  1
  N  N10  1  0.10599111  0.78437292  0.88413122  1
  N  N11  1  0.94477572  0.75430345  0.10909435  1
  H  H12  1  0.57924944  0.37917152  0.45457211  1
  H  H13  1  0.64985824  0.29653999  0.69485219  1
  H  H14  1  0.50222906  0.16283596  0.67600082  1
  H  H15  1  0.36871928  0.28111935  0.30209912  1
  H  H16  1  0.33890532  0.14769395  0.42790397  1
  H  H17  1  0.07948826  0.12097311  0.04552968  1
  H  H18  1  0.14974364  0.20354451  0.80509533  1
  H  H19  1  0.00208677  0.33714761  0.82407572  1
  H  H20  1  0.86883017  0.21884848  0.19808821  1
  H  H21  1  0.83887328  0.35220012  0.07224846  1
  H  H22  1  0.46678143  0.88457315  0.57028878  1
  H  H23  1  0.64305778  0.75669506  0.72054541  1
  H  H24  1  0.66051807  0.62666130  0.57991611  1
  H  H25  1  0.37011504  0.80981676  0.32952357  1
  H  H26  1  0.46486661  0.65243382  0.34186365  1
  H  H27  1  0.96766590  0.61492220  0.93049292  1
  H  H28  1  0.14342275  0.74276168  0.77968122  1
  H  H29  1  0.15959305  0.87361005  0.91939701  1
  H  H30  1  0.86988586  0.69033178  0.17057911  1
  H  H31  1  0.96345291  0.84811107  0.15744912  1
  Pt  Pt32  1  0.48694243  0.97466186  0.01190206  1
  Pt  Pt33  1  0.98701835  0.52536344  0.48797736  1
  Pb  Pb34  1  0.91046787  0.01987670  0.56999672  1
  Pb  Pb35  1  0.41042282  0.47965128  0.92989041  1
  Cl  Cl36  1  0.47667509  0.20646121  0.01878570  1
  Cl  Cl37  1  0.25991212  0.96992371  0.18598126  1
  Cl  Cl38  1  0.77815166  0.01296613  0.29069402  1
  Cl  Cl39  1  0.97653225  0.29355203  0.48164895  1
  Cl  Cl40  1  0.25270076  0.03409747  0.65944635  1
  Cl  Cl41  1  0.72390083  0.98027775  0.85054150  1
  Cl  Cl42  1  0.52320969  0.74441113  0.01487075  1
  Cl  Cl43  1  0.76011398  0.52989177  0.31383201  1
  Cl  Cl44  1  0.27862774  0.48708681  0.20941469  1
  Cl  Cl45  1  0.02354904  0.75557625  0.48441036  1
  Cl  Cl46  1  0.22371406  0.52005189  0.64954363  1
  Cl  Cl47  1  0.75273419  0.46594868  0.84080581  1
