# generated using pymatgen
data_HgH10PtC2(N2Cl3)2
_symmetry_space_group_name_H-M   'P 1'
_cell_length_a   7.78963792
_cell_length_b   10.69790112
_cell_length_c   7.77083906
_cell_angle_alpha   89.62593805
_cell_angle_beta   90.00162055
_cell_angle_gamma   90.00318971
_symmetry_Int_Tables_number   1
_chemical_formula_structural   HgH10PtC2(N2Cl3)2
_chemical_formula_sum   'Hg2 H20 Pt2 C4 N8 Cl12'
_cell_volume   647.55179094
_cell_formula_units_Z   2
loop_
 _symmetry_equiv_pos_site_id
 _symmetry_equiv_pos_as_xyz
  1  'x, y, z'
loop_
 _atom_site_type_symbol
 _atom_site_label
 _atom_site_symmetry_multiplicity
 _atom_site_fract_x
 _atom_site_fract_y
 _atom_site_fract_z
 _atom_site_occupancy
  C  C0  1  0.49495430  0.29302616  0.49603357  1
  C  C1  1  0.99499994  0.20694607  0.00397459  1
  C  C2  1  0.50487569  0.79303756  0.50331602  1
  C  C3  1  0.00481705  0.70696742  0.99667997  1
  N  N4  1  0.60458954  0.23753020  0.59858939  1
  N  N5  1  0.38961631  0.23753986  0.39003612  1
  N  N6  1  0.10464975  0.26248290  0.90146401  1
  N  N7  1  0.88963418  0.26247976  0.10999003  1
  N  N8  1  0.60836339  0.73735701  0.61186672  1
  N  N9  1  0.39792622  0.73759047  0.39863976  1
  N  N10  1  0.10831069  0.76265750  0.88814247  1
  N  N11  1  0.89784582  0.76240187  0.10133004  1
  H  H12  1  0.49076481  0.39465885  0.49929731  1
  H  H13  1  0.68216968  0.29114343  0.67379222  1
  H  H14  1  0.61541451  0.14291977  0.61236598  1
  H  H15  1  0.30775401  0.29155770  0.31905351  1
  H  H16  1  0.38462724  0.14324543  0.37102916  1
  H  H17  1  0.99076696  0.10535203  0.00071393  1
  H  H18  1  0.18222694  0.20884484  0.82626568  1
  H  H19  1  0.11551147  0.35707151  0.88770026  1
  H  H20  1  0.80776653  0.20844251  0.18093275  1
  H  H21  1  0.88468529  0.35674374  0.12898479  1
  H  H22  1  0.50815068  0.89465252  0.49951807  1
  H  H23  1  0.68326787  0.79138525  0.68926038  1
  H  H24  1  0.62251354  0.64278016  0.62307285  1
  H  H25  1  0.32601147  0.79133595  0.31722552  1
  H  H26  1  0.37905861  0.64330254  0.39439283  1
  H  H27  1  0.00810298  0.60535190  0.00048605  1
  H  H28  1  0.18323640  0.70864133  0.81076898  1
  H  H29  1  0.12245392  0.85724019  0.87693713  1
  H  H30  1  0.82592664  0.70864758  0.18273509  1
  H  H31  1  0.87896898  0.85668655  0.10556792  1
  Pt  Pt32  1  0.49965441  0.00004441  0.99810930  1
  Pt  Pt33  1  0.99964486  0.49996065  0.50188786  1
  Hg  Hg34  1  0.00114845  0.99999848  0.49704346  1
  Hg  Hg35  1  0.50114721  0.50000993  0.00294873  1
  Cl  Cl36  1  0.49948014  0.22209171  0.99580364  1
  Cl  Cl37  1  0.25997923  0.99240221  0.18703799  1
  Cl  Cl38  1  0.68849371  0.00643499  0.23828218  1
  Cl  Cl39  1  0.99941660  0.27791287  0.50421999  1
  Cl  Cl40  1  0.31112790  0.00763930  0.75784949  1
  Cl  Cl41  1  0.73960772  0.99377538  0.80903737  1
  Cl  Cl42  1  0.50058476  0.77800619  0.00227068  1
  Cl  Cl43  1  0.75996532  0.50758181  0.31295227  1
  Cl  Cl44  1  0.18846397  0.49356315  0.26171258  1
  Cl  Cl45  1  0.00060464  0.72199964  0.49768482  1
  Cl  Cl46  1  0.23961175  0.50624892  0.69096021  1
  Cl  Cl47  1  0.81112725  0.49237281  0.74214108  1
