# generated using pymatgen
data_BiH10AuC2(N2Cl3)2
_symmetry_space_group_name_H-M   'P 1'
_cell_length_a   8.05101123
_cell_length_b   10.15385813
_cell_length_c   8.26024653
_cell_angle_alpha   90.24188778
_cell_angle_beta   90.00006790
_cell_angle_gamma   90.00012502
_symmetry_Int_Tables_number   1
_chemical_formula_structural   BiH10AuC2(N2Cl3)2
_chemical_formula_sum   'Bi2 H20 Au2 C4 N8 Cl12'
_cell_volume   675.25943699
_cell_formula_units_Z   2
loop_
 _symmetry_equiv_pos_site_id
 _symmetry_equiv_pos_as_xyz
  1  'x, y, z'
loop_
 _atom_site_type_symbol
 _atom_site_label
 _atom_site_symmetry_multiplicity
 _atom_site_fract_x
 _atom_site_fract_y
 _atom_site_fract_z
 _atom_site_occupancy
  C  C0  1  0.49687761  0.29379146  0.49782972  1
  C  C1  1  0.99676979  0.20624454  0.00219385  1
  C  C2  1  0.50357089  0.79279641  0.50277642  1
  C  C3  1  0.00355660  0.70717016  0.99720741  1
  N  N4  1  0.59323855  0.23688430  0.60436840  1
  N  N5  1  0.40368053  0.23460381  0.38987921  1
  N  N6  1  0.09318159  0.26313980  0.89567395  1
  N  N7  1  0.90362321  0.26547784  0.11016718  1
  N  N8  1  0.60073374  0.73342327  0.60659248  1
  N  N9  1  0.40206939  0.73626223  0.39987861  1
  N  N10  1  0.10071497  0.76653098  0.89339936  1
  N  N11  1  0.90207423  0.76368484  0.10011248  1
  H  H12  1  0.49366572  0.40097166  0.49917829  1
  H  H13  1  0.66193383  0.29519779  0.68057342  1
  H  H14  1  0.60506983  0.13737175  0.61644222  1
  H  H15  1  0.33243372  0.29154284  0.31498075  1
  H  H16  1  0.39701572  0.13490277  0.37517216  1
  H  H17  1  0.99344719  0.09907864  0.00079820  1
  H  H18  1  0.16183786  0.20480888  0.81945187  1
  H  H19  1  0.10510847  0.36264206  0.88364741  1
  H  H20  1  0.83234170  0.20854580  0.18504729  1
  H  H21  1  0.89705772  0.36516308  0.12491265  1
  H  H22  1  0.50794413  0.89992595  0.50181307  1
  H  H23  1  0.67443224  0.79053846  0.67958118  1
  H  H24  1  0.60885696  0.63374186  0.61905242  1
  H  H25  1  0.33235616  0.79500372  0.32568680  1
  H  H26  1  0.38683759  0.63688645  0.38916747  1
  H  H27  1  0.00792035  0.60002786  0.99815014  1
  H  H28  1  0.17441276  0.70942769  0.82039066  1
  H  H29  1  0.10885227  0.86622628  0.88094411  1
  H  H30  1  0.83235321  0.70493711  0.17430236  1
  H  H31  1  0.88684510  0.86306340  0.11084410  1
  Au  Au32  1  0.49960252  0.99857386  0.99864331  1
  Au  Au33  1  0.99961334  0.50143568  0.50134191  1
  Bi  Bi34  1  0.00047121  0.00134831  0.49804712  1
  Bi  Bi35  1  0.50047540  0.49866127  0.00193039  1
  Cl  Cl36  1  0.49887579  0.23004023  0.99666956  1
  Cl  Cl37  1  0.20197086  0.98310592  0.23720621  1
  Cl  Cl38  1  0.73533208  0.01732149  0.29836731  1
  Cl  Cl39  1  0.99891924  0.26997142  0.50333676  1
  Cl  Cl40  1  0.26460502  0.01804600  0.69801462  1
  Cl  Cl41  1  0.79772840  0.98455687  0.75879097  1
  Cl  Cl42  1  0.50098550  0.76724407  0.00306598  1
  Cl  Cl43  1  0.70194904  0.51692116  0.26280399  1
  Cl  Cl44  1  0.23531585  0.48267818  0.20159252  1
  Cl  Cl45  1  0.00099551  0.73276300  0.49690902  1
  Cl  Cl46  1  0.29774708  0.51541690  0.74118577  1
  Cl  Cl47  1  0.76461885  0.48196494  0.80198369  1
