# generated using pymatgen
data_HgH10PbC2(N2Cl3)2
_symmetry_space_group_name_H-M   'P 1'
_cell_length_a   7.93768608
_cell_length_b   10.64837410
_cell_length_c   7.92281983
_cell_angle_alpha   89.95204252
_cell_angle_beta   90.00010429
_cell_angle_gamma   89.99964467
_symmetry_Int_Tables_number   1
_chemical_formula_structural   HgH10PbC2(N2Cl3)2
_chemical_formula_sum   'Hg2 H20 Pb2 C4 N8 Cl12'
_cell_volume   669.66383862
_cell_formula_units_Z   2
loop_
 _symmetry_equiv_pos_site_id
 _symmetry_equiv_pos_as_xyz
  1  'x, y, z'
loop_
 _atom_site_type_symbol
 _atom_site_label
 _atom_site_symmetry_multiplicity
 _atom_site_fract_x
 _atom_site_fract_y
 _atom_site_fract_z
 _atom_site_occupancy
  C  C0  1  0.49431207  0.29314587  0.49629198  1
  C  C1  1  0.99436011  0.20684893  0.00371601  1
  C  C2  1  0.50549723  0.79315119  0.50353477  1
  C  C3  1  0.00543932  0.70685323  0.99645422  1
  N  N4  1  0.60090246  0.23753272  0.59811456  1
  N  N5  1  0.39206069  0.23741840  0.39049456  1
  N  N6  1  0.10097722  0.26247240  0.90192930  1
  N  N7  1  0.89209123  0.26257373  0.10952114  1
  N  N8  1  0.60816298  0.73743813  0.60916279  1
  N  N9  1  0.39902958  0.73748551  0.40179664  1
  N  N10  1  0.10811642  0.76257119  0.89084317  1
  N  N11  1  0.89894732  0.76250566  0.09817083  1
  H  H12  1  0.48999950  0.39529277  0.50042775  1
  H  H13  1  0.67579384  0.29184898  0.67352385  1
  H  H14  1  0.61232663  0.14245137  0.60801587  1
  H  H15  1  0.31343632  0.29225622  0.31923196  1
  H  H16  1  0.38716481  0.14257906  0.37295739  1
  H  H17  1  0.99002164  0.10470635  0.99955757  1
  H  H18  1  0.17587212  0.20814629  0.82651643  1
  H  H19  1  0.11243204  0.35754136  0.89206032  1
  H  H20  1  0.81345208  0.20774520  0.18074638  1
  H  H21  1  0.88721770  0.35741863  0.12706767  1
  H  H22  1  0.50938833  0.89530613  0.49957524  1
  H  H23  1  0.68342604  0.79236067  0.68366373  1
  H  H24  1  0.61928883  0.64237220  0.62061983  1
  H  H25  1  0.32700152  0.79174002  0.32339053  1
  H  H26  1  0.38186357  0.64264753  0.39787685  1
  H  H27  1  0.00934597  0.60469566  0.00041030  1
  H  H28  1  0.18340499  0.70765775  0.81635752  1
  H  H29  1  0.11923394  0.85763948  0.87939735  1
  H  H30  1  0.82691704  0.70824755  0.17656812  1
  H  H31  1  0.88176036  0.85734630  0.10209093  1
  Hg  Hg32  1  0.49954715  0.99997026  0.99686717  1
  Hg  Hg33  1  0.99955558  0.50004193  0.50314380  1
  Pb  Pb34  1  0.00089402  0.00004447  0.49696889  1
  Pb  Pb35  1  0.50089499  0.49996803  0.00303494  1
  Cl  Cl36  1  0.49892473  0.23487105  0.99449398  1
  Cl  Cl37  1  0.21887561  0.98330766  0.21434885  1
  Cl  Cl38  1  0.71409753  0.01748300  0.28137839  1
  Cl  Cl39  1  0.99887551  0.26514155  0.50554616  1
  Cl  Cl40  1  0.28308397  0.01645413  0.71688101  1
  Cl  Cl41  1  0.78324967  0.98277847  0.78341959  1
  Cl  Cl42  1  0.50173537  0.76515219  0.00482918  1
  Cl  Cl43  1  0.71886176  0.51669388  0.28566327  1
  Cl  Cl44  1  0.21407917  0.48251795  0.21860881  1
  Cl  Cl45  1  0.00178748  0.73485754  0.49512534  1
  Cl  Cl46  1  0.28324608  0.51723398  0.71659210  1
  Cl  Cl47  1  0.78306681  0.48355040  0.78311770  1
