# generated using pymatgen
data_TlBiH10C2(N2Cl3)2
_symmetry_space_group_name_H-M   'P 1'
_cell_length_a   8.07162759
_cell_length_b   11.20272509
_cell_length_c   8.06525578
_cell_angle_alpha   90.14570078
_cell_angle_beta   89.99798068
_cell_angle_gamma   89.99903898
_symmetry_Int_Tables_number   1
_chemical_formula_structural   TlBiH10C2(N2Cl3)2
_chemical_formula_sum   'Tl2 Bi2 H20 C4 N8 Cl12'
_cell_volume   729.29214408
_cell_formula_units_Z   2
loop_
 _symmetry_equiv_pos_site_id
 _symmetry_equiv_pos_as_xyz
  1  'x, y, z'
loop_
 _atom_site_type_symbol
 _atom_site_label
 _atom_site_symmetry_multiplicity
 _atom_site_fract_x
 _atom_site_fract_y
 _atom_site_fract_z
 _atom_site_occupancy
  C  C0  1  0.49619326  0.29117956  0.49745349  1
  C  C1  1  0.99615777  0.20893359  0.00256616  1
  C  C2  1  0.50414371  0.79102757  0.50240454  1
  C  C3  1  0.00402518  0.70887004  0.99761183  1
  N  N4  1  0.60046468  0.23904837  0.59877975  1
  N  N5  1  0.39518038  0.23728151  0.39416525  1
  N  N6  1  0.10050215  0.26107490  0.90125311  1
  N  N7  1  0.89522398  0.26282227  0.10586076  1
  N  N8  1  0.60457818  0.73716158  0.60579469  1
  N  N9  1  0.39942710  0.73889797  0.40108708  1
  N  N10  1  0.10451305  0.76275923  0.89421980  1
  N  N11  1  0.89935540  0.76095906  0.09891911  1
  H  H12  1  0.49299448  0.38848342  0.49918470  1
  H  H13  1  0.67284724  0.29106053  0.67365892  1
  H  H14  1  0.61475806  0.14878831  0.60724403  1
  H  H15  1  0.31983876  0.28832104  0.32123729  1
  H  H16  1  0.38606701  0.14676883  0.38230321  1
  H  H17  1  0.99291074  0.11163259  0.00071733  1
  H  H18  1  0.17286874  0.20906283  0.82632242  1
  H  H19  1  0.11487443  0.35135158  0.89286670  1
  H  H20  1  0.81985989  0.21180451  0.17872883  1
  H  H21  1  0.88619051  0.35331645  0.11778426  1
  H  H22  1  0.50817372  0.88830955  0.50033433  1
  H  H23  1  0.68051813  0.78817757  0.67841134  1
  H  H24  1  0.61139703  0.64673394  0.61927177  1
  H  H25  1  0.32729361  0.79087979  0.32622551  1
  H  H26  1  0.38584792  0.64857895  0.39122023  1
  H  H27  1  0.00806934  0.61158971  0.99957806  1
  H  H28  1  0.18046468  0.71174975  0.82156885  1
  H  H29  1  0.11135754  0.85321337  0.88079624  1
  H  H30  1  0.82723998  0.70896692  0.17372617  1
  H  H31  1  0.88580126  0.85125454  0.10885223  1
  Tl  Tl32  1  0.49976725  0.99992701  0.99665133  1
  Tl  Tl33  1  0.99977911  0.50007275  0.50337242  1
  Bi  Bi34  1  0.00034107  0.00004674  0.49731076  1
  Bi  Bi35  1  0.50032828  0.49995294  0.00269516  1
  Cl  Cl36  1  0.49875262  0.26234062  0.99729537  1
  Cl  Cl37  1  0.20788697  0.98536186  0.23209185  1
  Cl  Cl38  1  0.73361118  0.01508290  0.29071619  1
  Cl  Cl39  1  0.99868736  0.23766381  0.50272109  1
  Cl  Cl40  1  0.26518798  0.01482212  0.70470471  1
  Cl  Cl41  1  0.79397181  0.98467616  0.76382761  1
  Cl  Cl42  1  0.50096985  0.73756385  0.00328320  1
  Cl  Cl43  1  0.70787085  0.51465483  0.26793876  1
  Cl  Cl44  1  0.23353321  0.48490973  0.20922338  1
  Cl  Cl45  1  0.00100379  0.76242922  0.49667106  1
  Cl  Cl46  1  0.29401641  0.51531630  0.73614691  1
  Cl  Cl47  1  0.76517370  0.48518229  0.79530699  1
