# generated using pymatgen
data_ZnGeH12C2(I3N)2
_symmetry_space_group_name_H-M   'P 1'
_cell_length_a   8.18535310
_cell_length_b   12.55342203
_cell_length_c   8.49102452
_cell_angle_alpha   90.11947663
_cell_angle_beta   89.64932972
_cell_angle_gamma   89.92292921
_symmetry_Int_Tables_number   1
_chemical_formula_structural   ZnGeH12C2(I3N)2
_chemical_formula_sum   'Zn2 Ge2 H24 C4 I12 N4'
_cell_volume   872.46932097
_cell_formula_units_Z   2
loop_
 _symmetry_equiv_pos_site_id
 _symmetry_equiv_pos_as_xyz
  1  'x, y, z'
loop_
 _atom_site_type_symbol
 _atom_site_label
 _atom_site_symmetry_multiplicity
 _atom_site_fract_x
 _atom_site_fract_y
 _atom_site_fract_z
 _atom_site_occupancy
  C  C0  1  0.40770243  0.24967707  0.38915467  1
  C  C1  1  0.90165875  0.24461508  0.11078330  1
  C  C2  1  0.59784357  0.74501207  0.61198856  1
  C  C3  1  0.09232062  0.75006427  0.89098356  1
  N  N4  1  0.54618838  0.26289437  0.49948320  1
  N  N5  1  0.03708756  0.25558821  0.99479493  1
  N  N6  1  0.46364093  0.75512901  0.49607526  1
  N  N7  1  0.95359453  0.76409950  0.00257564  1
  H  H8  1  0.45583190  0.24759990  0.26851004  1
  H  H9  1  0.34584871  0.17464942  0.41643021  1
  H  H10  1  0.32364733  0.31687775  0.40367910  1
  H  H11  1  0.62779419  0.19970613  0.48833208  1
  H  H12  1  0.61077074  0.33299203  0.47555004  1
  H  H13  1  0.50853881  0.26529056  0.61733040  1
  H  H14  1  0.95332437  0.24434137  0.22956381  1
  H  H15  1  0.83660770  0.17007451  0.08778228  1
  H  H16  1  0.81943740  0.31288089  0.09784588  1
  H  H17  1  0.12169311  0.19435014  0.00602440  1
  H  H18  1  0.09914528  0.32720246  0.01380091  1
  H  H19  1  0.99715847  0.25434291  0.87803721  1
  H  H20  1  0.54486890  0.74528009  0.73084226  1
  H  H21  1  0.66379971  0.67048111  0.58975753  1
  H  H22  1  0.67964833  0.81334579  0.59820558  1
  H  H23  1  0.40058601  0.82662327  0.51459466  1
  H  H24  1  0.37961545  0.69364176  0.50778338  1
  H  H25  1  0.50473914  0.75366229  0.37924706  1
  H  H26  1  0.04435254  0.74744615  0.77086354  1
  H  H27  1  0.17623964  0.81723846  0.90390876  1
  H  H28  1  0.15416489  0.67508331  0.91847714  1
  H  H29  1  0.88936022  0.83429361  0.97846521  1
  H  H30  1  0.87167034  0.70123158  0.99263625  1
  H  H31  1  0.99105183  0.76674501  0.12002001  1
  Zn  Zn32  1  0.55334246  0.94535282  0.08685495  1
  Zn  Zn33  1  0.94583128  0.44587014  0.58746549  1
  Ge  Ge34  1  0.06467519  0.98420458  0.42769093  1
  Ge  Ge35  1  0.43502340  0.48439109  0.92395457  1
  I  I36  1  0.46952981  0.26790007  0.91116475  1
  I  I37  1  0.23492054  0.01163973  0.12463767  1
  I  I38  1  0.67750479  0.00886176  0.35427673  1
  I  I39  1  0.97623762  0.23772981  0.58476581  1
  I  I40  1  0.29560666  0.98990256  0.66042494  1
  I  I41  1  0.74899932  0.99794884  0.85773074  1
  I  I42  1  0.52200288  0.73744188  0.08547599  1
  I  I43  1  0.75126999  0.49853857  0.35969004  1
  I  I44  1  0.20459913  0.48948349  0.15973666  1
  I  I45  1  0.03245161  0.76768148  0.41359417  1
  I  I46  1  0.26445593  0.51078737  0.62231608  1
  I  I47  1  0.82364133  0.50988402  0.85699019  1
