# generated using pymatgen
data_CsBI3
_symmetry_space_group_name_H-M   'P 1'
_cell_length_a   8.11035118
_cell_length_b   12.34867448
_cell_length_c   8.10265985
_cell_angle_alpha   89.99261039
_cell_angle_beta   79.15598611
_cell_angle_gamma   89.94367072
_symmetry_Int_Tables_number   1
_chemical_formula_structural   CsBI3
_chemical_formula_sum   'Cs4 B4 I12'
_cell_volume   797.00699443
_cell_formula_units_Z   4
loop_
 _symmetry_equiv_pos_site_id
 _symmetry_equiv_pos_as_xyz
  1  'x, y, z'
loop_
 _atom_site_type_symbol
 _atom_site_label
 _atom_site_symmetry_multiplicity
 _atom_site_fract_x
 _atom_site_fract_y
 _atom_site_fract_z
 _atom_site_occupancy
  Cs  Cs0  1  0.48846827  0.24964039  0.46912013  1
  Cs  Cs1  1  0.96775563  0.25098077  0.98855417  1
  Cs  Cs2  1  0.53374166  0.75110506  0.51171172  1
  Cs  Cs3  1  0.01007743  0.74949187  0.03064459  1
  B  B4  1  0.43993747  0.05391557  0.94119315  1
  B  B5  1  0.06074907  0.55461708  0.55841620  1
  B  B6  1  0.98504695  0.01804614  0.48500012  1
  B  B7  1  0.51422526  0.51756567  0.01525972  1
  I  I8  1  0.45925559  0.23931540  0.96053559  1
  I  I9  1  0.32837376  0.98941566  0.20195947  1
  I  I10  1  0.79932210  0.99302152  0.29722420  1
  I  I11  1  0.99537971  0.20685190  0.49641390  1
  I  I12  1  0.26216251  0.00818521  0.76391187  1
  I  I13  1  0.70051615  0.98956095  0.82822904  1
  I  I14  1  0.50280185  0.70639206  0.00501346  1
  I  I15  1  0.69997796  0.49220758  0.20300627  1
  I  I16  1  0.17105351  0.48947754  0.29764669  1
  I  I17  1  0.04217938  0.74005940  0.53863259  1
  I  I18  1  0.23876845  0.50845485  0.73535751  1
  I  I19  1  0.80015265  0.49091970  0.67195842  1
