# generated using pymatgen
data_CsCI3
_symmetry_space_group_name_H-M   'P 1'
_cell_length_a   7.90569205
_cell_length_b   11.54893913
_cell_length_c   8.38376993
_cell_angle_alpha   90.00037521
_cell_angle_beta   89.99995385
_cell_angle_gamma   90.00013028
_symmetry_Int_Tables_number   1
_chemical_formula_structural   CsCI3
_chemical_formula_sum   'Cs4 C4 I12'
_cell_volume   765.45794970
_cell_formula_units_Z   4
loop_
 _symmetry_equiv_pos_site_id
 _symmetry_equiv_pos_as_xyz
  1  'x, y, z'
loop_
 _atom_site_type_symbol
 _atom_site_label
 _atom_site_symmetry_multiplicity
 _atom_site_fract_x
 _atom_site_fract_y
 _atom_site_fract_z
 _atom_site_occupancy
  Cs  Cs0  1  0.50000141  0.24925432  0.48771058  1
  Cs  Cs1  1  0.00002476  0.24931073  0.98843656  1
  Cs  Cs2  1  0.49999972  0.74924044  0.51228385  1
  Cs  Cs3  1  0.99996895  0.74932255  0.01154549  1
  C  C4  1  0.50003409  0.03072076  0.93568889  1
  C  C5  1  0.00000616  0.53027385  0.56423779  1
  C  C6  1  0.99999687  0.03027597  0.43575331  1
  C  C7  1  0.49994874  0.53074666  0.06426458  1
  I  I8  1  0.50003070  0.22645475  0.97497628  1
  I  I9  1  0.22879595  0.99664988  0.27442740  1
  I  I10  1  0.77120492  0.99665680  0.27441477  1
  I  I11  1  0.00000352  0.22602979  0.47497803  1
  I  I12  1  0.27122326  0.99711265  0.77437140  1
  I  I13  1  0.72882605  0.99711333  0.77434948  1
  I  I14  1  0.49995795  0.72648549  0.02502495  1
  I  I15  1  0.72876214  0.49711653  0.22557357  1
  I  I16  1  0.27116456  0.49711841  0.22560798  1
  I  I17  1  0.99999901  0.72602447  0.52500374  1
  I  I18  1  0.22879646  0.49666205  0.72558117  1
  I  I19  1  0.77120012  0.49665488  0.72555901  1
