# generated using pymatgen
data_CsCaI3
_symmetry_space_group_name_H-M   'P 1'
_cell_length_a   8.70553577
_cell_length_b   12.29998923
_cell_length_c   8.70492303
_cell_angle_alpha   90.00026424
_cell_angle_beta   90.00004473
_cell_angle_gamma   90.00011316
_symmetry_Int_Tables_number   1
_chemical_formula_structural   CsCaI3
_chemical_formula_sum   'Cs4 Ca4 I12'
_cell_volume   932.10571546
_cell_formula_units_Z   4
loop_
 _symmetry_equiv_pos_site_id
 _symmetry_equiv_pos_as_xyz
  1  'x, y, z'
loop_
 _atom_site_type_symbol
 _atom_site_label
 _atom_site_symmetry_multiplicity
 _atom_site_fract_x
 _atom_site_fract_y
 _atom_site_fract_z
 _atom_site_occupancy
  Cs  Cs0  1  0.49981206  0.24979271  0.49979573  1
  Cs  Cs1  1  0.99980764  0.25013569  0.00018776  1
  Cs  Cs2  1  0.50018275  0.74979303  0.50018510  1
  Cs  Cs3  1  0.00018810  0.75013570  0.99979249  1
  Ca  Ca4  1  0.49999926  0.99995929  0.99977400  1
  Ca  Ca5  1  0.99999501  0.49996565  0.50020183  1
  Ca  Ca6  1  0.99999865  0.99996578  0.49977100  1
  Ca  Ca7  1  0.49999438  0.49995503  0.00020177  1
  I  I8  1  0.49980380  0.24995502  0.99928407  1
  I  I9  1  0.24969051  0.00029058  0.24952871  1
  I  I10  1  0.74955143  0.00022351  0.25028558  1
  I  I11  1  0.99981958  0.24996609  0.50069993  1
  I  I12  1  0.25030635  0.99963378  0.74953305  1
  I  I13  1  0.75043835  0.99969264  0.75027956  1
  I  I14  1  0.50019153  0.74995514  0.00069550  1
  I  I15  1  0.74967625  0.49963276  0.25045661  1
  I  I16  1  0.24955092  0.49969359  0.24969297  1
  I  I17  1  0.00017657  0.74996598  0.49927845  1
  I  I18  1  0.25044923  0.50022327  0.74968674  1
  I  I19  1  0.75031300  0.50028910  0.75045795  1
