# generated using pymatgen
data_CsGeI3
_symmetry_space_group_name_H-M   'P 1'
_cell_length_a   8.41824614
_cell_length_b   11.90418057
_cell_length_c   8.41821831
_cell_angle_alpha   90.00000644
_cell_angle_beta   89.99998607
_cell_angle_gamma   89.99998963
_symmetry_Int_Tables_number   1
_chemical_formula_structural   CsGeI3
_chemical_formula_sum   'Cs4 Ge4 I12'
_cell_volume   843.60920459
_cell_formula_units_Z   4
loop_
 _symmetry_equiv_pos_site_id
 _symmetry_equiv_pos_as_xyz
  1  'x, y, z'
loop_
 _atom_site_type_symbol
 _atom_site_label
 _atom_site_symmetry_multiplicity
 _atom_site_fract_x
 _atom_site_fract_y
 _atom_site_fract_z
 _atom_site_occupancy
  Cs  Cs0  1  0.49980275  0.24982395  0.49976792  1
  Cs  Cs1  1  0.99979985  0.25008883  0.00021368  1
  Cs  Cs2  1  0.50019131  0.74982363  0.50021231  1
  Cs  Cs3  1  0.00019469  0.75008844  0.99976586  1
  Ge  Ge4  1  0.50000219  0.99997155  0.99969924  1
  Ge  Ge5  1  0.99999311  0.49997383  0.50026881  1
  Ge  Ge6  1  0.00000089  0.99997378  0.49969921  1
  Ge  Ge7  1  0.49999194  0.49997164  0.00026892  1
  I  I8  1  0.49980674  0.24995908  0.99943941  1
  I  I9  1  0.24975576  0.00013764  0.24968407  1
  I  I10  1  0.74967795  0.00010233  0.25024460  1
  I  I11  1  0.99981674  0.24996364  0.50054514  1
  I  I12  1  0.25023599  0.99977548  0.74968651  1
  I  I13  1  0.75031530  0.99981523  0.75024363  1
  I  I14  1  0.50018775  0.74995905  0.00054213  1
  I  I15  1  0.74975262  0.49977725  0.25030058  1
  I  I16  1  0.24967669  0.49981616  0.24973453  1
  I  I17  1  0.00017790  0.74996367  0.49943558  1
  I  I18  1  0.25031989  0.50010254  0.74973339  1
  I  I19  1  0.75024530  0.50013662  0.75030329  1
