# generated using pymatgen
data_CsSnI3
_symmetry_space_group_name_H-M   'P 1'
_cell_length_a   8.77020317
_cell_length_b   12.39721329
_cell_length_c   8.77013732
_cell_angle_alpha   90.00020172
_cell_angle_beta   90.00010787
_cell_angle_gamma   89.99981042
_symmetry_Int_Tables_number   1
_chemical_formula_structural   CsSnI3
_chemical_formula_sum   'Cs4 Sn4 I12'
_cell_volume   953.54264577
_cell_formula_units_Z   4
loop_
 _symmetry_equiv_pos_site_id
 _symmetry_equiv_pos_as_xyz
  1  'x, y, z'
loop_
 _atom_site_type_symbol
 _atom_site_label
 _atom_site_symmetry_multiplicity
 _atom_site_fract_x
 _atom_site_fract_y
 _atom_site_fract_z
 _atom_site_occupancy
  Cs  Cs0  1  0.49972350  0.24965475  0.49970542  1
  Cs  Cs1  1  0.99971507  0.25026364  0.00028201  1
  Cs  Cs2  1  0.50027026  0.74965560  0.50027609  1
  Cs  Cs3  1  0.00027903  0.75026412  0.99969951  1
  Sn  Sn4  1  0.49999857  0.99995705  0.99973393  1
  Sn  Sn5  1  0.99999460  0.49997057  0.50024276  1
  Sn  Sn6  1  0.99999855  0.99996980  0.49973527  1
  Sn  Sn7  1  0.49999446  0.49995685  0.00024277  1
  I  I8  1  0.49974274  0.24996119  0.99919846  1
  I  I9  1  0.24968497  0.00030617  0.24949409  1
  I  I10  1  0.74947848  0.00022565  0.25032802  1
  I  I11  1  0.99976313  0.24997057  0.50077927  1
  I  I12  1  0.25030566  0.99960548  0.74950059  1
  I  I13  1  0.75051604  0.99969892  0.75032560  1
  I  I14  1  0.50025130  0.74996119  0.00077970  1
  I  I15  1  0.74967880  0.49960740  0.25048665  1
  I  I16  1  0.24947326  0.49969904  0.24964740  1
  I  I17  1  0.00023743  0.74996947  0.49919310  1
  I  I18  1  0.25052084  0.50022451  0.74964454  1
  I  I19  1  0.75031868  0.50030235  0.75049363  1
