# generated using pymatgen
data_Cs2BePbI6
_symmetry_space_group_name_H-M   'P 1'
_cell_length_a   8.51027464
_cell_length_b   12.43068934
_cell_length_c   8.92897099
_cell_angle_alpha   90.01602346
_cell_angle_beta   90.00087753
_cell_angle_gamma   89.99963016
_symmetry_Int_Tables_number   1
_chemical_formula_structural   Cs2BePbI6
_chemical_formula_sum   'Cs4 Be2 Pb2 I12'
_cell_volume   944.58312707
_cell_formula_units_Z   2
loop_
 _symmetry_equiv_pos_site_id
 _symmetry_equiv_pos_as_xyz
  1  'x, y, z'
loop_
 _atom_site_type_symbol
 _atom_site_label
 _atom_site_symmetry_multiplicity
 _atom_site_fract_x
 _atom_site_fract_y
 _atom_site_fract_z
 _atom_site_occupancy
  Cs  Cs0  1  0.50000779  0.25926998  0.48992294  1
  Cs  Cs1  1  0.00000572  0.25165224  0.04155398  1
  Cs  Cs2  1  0.50000868  0.75238565  0.45786049  1
  Cs  Cs3  1  0.00005254  0.75694292  0.01047357  1
  Be  Be4  1  0.50007645  0.93808252  0.85107645  1
  Be  Be5  1  0.99986055  0.43914879  0.64991293  1
  Pb  Pb6  1  0.00004262  0.98859054  0.47638687  1
  Pb  Pb7  1  0.49994220  0.48829065  0.02307466  1
  I  I8  1  0.49974769  0.24999427  0.00267831  1
  I  I9  1  0.25920123  0.00928748  0.24963197  1
  I  I10  1  0.74112104  0.00946886  0.24940222  1
  I  I11  1  0.00015891  0.27250842  0.53593763  1
  I  I12  1  0.26462997  0.01028847  0.77303132  1
  I  I13  1  0.73517960  0.01063469  0.77273255  1
  I  I14  1  0.50041569  0.77224159  0.96738636  1
  I  I15  1  0.75893302  0.50767818  0.25047827  1
  I  I16  1  0.24131462  0.50784072  0.25083233  1
  I  I17  1  0.99980313  0.75009688  0.49315976  1
  I  I18  1  0.23486659  0.51251455  0.72732897  1
  I  I19  1  0.76457734  0.51230693  0.72692722  1
