# generated using pymatgen
data_H6PtCI3N
_symmetry_space_group_name_H-M   'P 1'
_cell_length_a   9.58866872
_cell_length_b   9.29627215
_cell_length_c   9.11005281
_cell_angle_alpha   90.00010448
_cell_angle_beta   90.02795279
_cell_angle_gamma   89.99643584
_symmetry_Int_Tables_number   1
_chemical_formula_structural   H6PtCI3N
_chemical_formula_sum   'H24 Pt4 C4 I12 N4'
_cell_volume   812.05975153
_cell_formula_units_Z   4
loop_
 _symmetry_equiv_pos_site_id
 _symmetry_equiv_pos_as_xyz
  1  'x, y, z'
loop_
 _atom_site_type_symbol
 _atom_site_label
 _atom_site_symmetry_multiplicity
 _atom_site_fract_x
 _atom_site_fract_y
 _atom_site_fract_z
 _atom_site_occupancy
  C  C0  1  0.47242669  0.25072425  0.36545057  1
  C  C1  1  0.97249945  0.25077686  0.13468418  1
  C  C2  1  0.52771804  0.74922279  0.63452555  1
  C  C3  1  0.02732244  0.74927374  0.86522923  1
  N  N4  1  0.54396158  0.24985512  0.51001064  1
  N  N5  1  0.04416331  0.24987126  0.99028138  1
  N  N6  1  0.45618652  0.75013131  0.48996363  1
  N  N7  1  0.95572059  0.75014793  0.00966771  1
  H  H8  1  0.55174908  0.25095839  0.27884576  1
  H  H9  1  0.40690822  0.15470457  0.35644265  1
  H  H10  1  0.40736854  0.34716057  0.35742690  1
  H  H11  1  0.60891091  0.16005414  0.51777420  1
  H  H12  1  0.60922214  0.33930234  0.51870934  1
  H  H13  1  0.47431833  0.24958016  0.59716828  1
  H  H14  1  0.05176558  0.25101653  0.22144453  1
  H  H15  1  0.90696712  0.15476928  0.14359419  1
  H  H16  1  0.90745476  0.34722212  0.14257384  1
  H  H17  1  0.10911883  0.16006973  0.98267616  1
  H  H18  1  0.10942148  0.33932045  0.98168910  1
  H  H19  1  0.97460610  0.24956994  0.90294850  1
  H  H20  1  0.44841489  0.74899845  0.72113234  1
  H  H21  1  0.59275819  0.65276681  0.64251751  1
  H  H22  1  0.59326971  0.84522512  0.64352947  1
  H  H23  1  0.39122925  0.83993581  0.48223240  1
  H  H24  1  0.39091283  0.66068685  0.48125057  1
  H  H25  1  0.52580433  0.75042354  0.40280642  1
  H  H26  1  0.94800622  0.74900274  0.77851046  1
  H  H27  1  0.09280590  0.84531020  0.85627635  1
  H  H28  1  0.09239729  0.65285778  0.85729313  1
  H  H29  1  0.89076583  0.83993779  0.01732321  1
  H  H30  1  0.89048661  0.66068698  0.01828113  1
  H  H31  1  0.02533859  0.75044623  0.09696022  1
  Pt  Pt32  1  0.49993097  0.00001863  0.00008622  1
  Pt  Pt33  1  0.00006343  0.50000826  0.50008248  1
  Pt  Pt34  1  0.00007366  0.99999195  0.50008749  1
  Pt  Pt35  1  0.49993873  0.50000217  0.00008865  1
  I  I36  1  0.41874393  0.25002126  0.89394479  1
  I  I37  1  0.25893673  0.97935386  0.13577072  1
  I  I38  1  0.75895616  0.97957004  0.36437254  1
  I  I39  1  0.91907921  0.25000895  0.60633475  1
  I  I40  1  0.24122098  0.02039648  0.63574849  1
  I  I41  1  0.74089284  0.02069311  0.86434074  1
  I  I42  1  0.58115474  0.75000330  0.10619243  1
  I  I43  1  0.75886298  0.52058806  0.36462045  1
  I  I44  1  0.25886444  0.52082986  0.13551704  1
  I  I45  1  0.08103056  0.74999064  0.39379877  1
  I  I46  1  0.24128924  0.47943489  0.63548807  1
  I  I47  1  0.74098578  0.47915703  0.86460341  1
