# generated using pymatgen
data_GaBiH12C2(I3N)2
_symmetry_space_group_name_H-M   'P 1'
_cell_length_a   8.55546865
_cell_length_b   12.29769481
_cell_length_c   8.41964862
_cell_angle_alpha   90.92650803
_cell_angle_beta   90.00852435
_cell_angle_gamma   89.98311424
_symmetry_Int_Tables_number   1
_chemical_formula_structural   GaBiH12C2(I3N)2
_chemical_formula_sum   'Ga2 Bi2 H24 C4 I12 N4'
_cell_volume   885.73677197
_cell_formula_units_Z   2
loop_
 _symmetry_equiv_pos_site_id
 _symmetry_equiv_pos_as_xyz
  1  'x, y, z'
loop_
 _atom_site_type_symbol
 _atom_site_label
 _atom_site_symmetry_multiplicity
 _atom_site_fract_x
 _atom_site_fract_y
 _atom_site_fract_z
 _atom_site_occupancy
  C  C0  1  0.39647703  0.25023857  0.41555161  1
  C  C1  1  0.89769360  0.24999773  0.08559215  1
  C  C2  1  0.60352108  0.74976531  0.58446122  1
  C  C3  1  0.10231305  0.75000319  0.91442224  1
  N  N4  1  0.53589011  0.25049820  0.52064744  1
  N  N5  1  0.03645254  0.24955573  0.97965508  1
  N  N6  1  0.46410605  0.74950518  0.47936792  1
  N  N7  1  0.96355623  0.75044163  0.02036202  1
  H  H8  1  0.43585304  0.24940703  0.29176672  1
  H  H9  1  0.32757780  0.17732043  0.43872226  1
  H  H10  1  0.32757552  0.32349198  0.44042450  1
  H  H11  1  0.60377644  0.18168727  0.49758385  1
  H  H12  1  0.60448975  0.31848432  0.49843434  1
  H  H13  1  0.50614208  0.25144206  0.64089796  1
  H  H14  1  0.93789094  0.25087284  0.20912904  1
  H  H15  1  0.82857409  0.17678841  0.06128957  1
  H  H16  1  0.82872158  0.32297266  0.06280755  1
  H  H17  1  0.10509202  0.18151043  0.00152785  1
  H  H18  1  0.10452669  0.31830815  0.00225570  1
  H  H19  1  0.00598819  0.24858830  0.85956699  1
  H  H20  1  0.56414540  0.75059731  0.70824728  1
  H  H21  1  0.67242072  0.67651076  0.55958922  1
  H  H22  1  0.67242092  0.82268207  0.56129048  1
  H  H23  1  0.39622096  0.81831683  0.50243166  1
  H  H24  1  0.39550766  0.68151997  0.50158041  1
  H  H25  1  0.49385428  0.74856235  0.35911584  1
  H  H26  1  0.06211383  0.74913039  0.79088620  1
  H  H27  1  0.17143237  0.82321235  0.93872754  1
  H  H28  1  0.17128621  0.67702812  0.93720219  1
  H  H29  1  0.89491373  0.81848579  0.99849246  1
  H  H30  1  0.89548397  0.68168825  0.99776038  1
  H  H31  1  0.99402239  0.75140804  0.14044942  1
  Ga  Ga32  1  0.50000069  0.00000915  0.00000727  1
  Ga  Ga33  1  0.99998662  0.50000263  0.49998657  1
  Bi  Bi34  1  0.00000083  0.00000270  0.50001011  1
  Bi  Bi35  1  0.49999756  0.50000826  0.99999305  1
  I  I36  1  0.47531392  0.25125634  0.94326552  1
  I  I37  1  0.18020868  0.01647000  0.18235784  1
  I  I38  1  0.68469933  0.01127281  0.32254693  1
  I  I39  1  0.97468374  0.24870014  0.55734430  1
  I  I40  1  0.31530691  0.98873273  0.67747002  1
  I  I41  1  0.81979792  0.98352984  0.81766074  1
  I  I42  1  0.52469049  0.74875758  0.05674595  1
  I  I43  1  0.68007538  0.48340090  0.31768499  1
  I  I44  1  0.18474859  0.48891100  0.17740014  1
  I  I45  1  0.02531495  0.75130400  0.44267324  1
  I  I46  1  0.31990897  0.51660354  0.68231191  1
  I  I47  1  0.81524887  0.51109501  0.82259892  1
