# generated using pymatgen
data_Cs2BeHgI6
_symmetry_space_group_name_H-M   'P 1'
_cell_length_a   8.43488551
_cell_length_b   12.22212521
_cell_length_c   8.86246543
_cell_angle_alpha   89.99772836
_cell_angle_beta   89.99747196
_cell_angle_gamma   89.99489495
_symmetry_Int_Tables_number   1
_chemical_formula_structural   Cs2BeHgI6
_chemical_formula_sum   'Cs4 Be2 Hg2 I12'
_cell_volume   913.65129139
_cell_formula_units_Z   2
loop_
 _symmetry_equiv_pos_site_id
 _symmetry_equiv_pos_as_xyz
  1  'x, y, z'
loop_
 _atom_site_type_symbol
 _atom_site_label
 _atom_site_symmetry_multiplicity
 _atom_site_fract_x
 _atom_site_fract_y
 _atom_site_fract_z
 _atom_site_occupancy
  Cs  Cs0  1  0.49996111  0.24250560  0.47221881  1
  Cs  Cs1  1  0.99998614  0.23945678  0.98247168  1
  Cs  Cs2  1  0.50003527  0.73939060  0.51756896  1
  Cs  Cs3  1  0.99999442  0.74271954  0.02763261  1
  Be  Be4  1  0.50004966  0.06496529  0.85241065  1
  Be  Be5  1  0.00010218  0.56500517  0.64753665  1
  Hg  Hg6  1  0.99993251  0.04780984  0.39116637  1
  Hg  Hg7  1  0.49992125  0.54775929  0.10888285  1
  I  I8  1  0.49997122  0.23042493  0.97856743  1
  I  I9  1  0.27159178  0.96854408  0.25850667  1
  I  I10  1  0.72816294  0.96855527  0.25875688  1
  I  I11  1  0.99996481  0.24820387  0.52615702  1
  I  I12  1  0.26265859  0.99455320  0.76436047  1
  I  I13  1  0.73754042  0.99454440  0.76456003  1
  I  I14  1  0.50004891  0.74820340  0.97399382  1
  I  I15  1  0.77158006  0.46847457  0.24149907  1
  I  I16  1  0.22812582  0.46848578  0.24122635  1
  I  I17  1  0.00004536  0.73042081  0.52124194  1
  I  I18  1  0.23757524  0.49458541  0.73541789  1
  I  I19  1  0.76269767  0.49461650  0.73561265  1
