# generated using pymatgen
data_Cs2BaBeI6
_symmetry_space_group_name_H-M   'P 1'
_cell_length_a   8.94898764
_cell_length_b   10.72221763
_cell_length_c   10.31203353
_cell_angle_alpha   89.81782617
_cell_angle_beta   90.00068037
_cell_angle_gamma   90.00066655
_symmetry_Int_Tables_number   1
_chemical_formula_structural   Cs2BaBeI6
_chemical_formula_sum   'Cs4 Ba2 Be2 I12'
_cell_volume   989.46547989
_cell_formula_units_Z   2
loop_
 _symmetry_equiv_pos_site_id
 _symmetry_equiv_pos_as_xyz
  1  'x, y, z'
loop_
 _atom_site_type_symbol
 _atom_site_label
 _atom_site_symmetry_multiplicity
 _atom_site_fract_x
 _atom_site_fract_y
 _atom_site_fract_z
 _atom_site_occupancy
  Cs  Cs0  1  0.49993334  0.26128910  0.45485165  1
  Cs  Cs1  1  0.99991743  0.23932523  0.04840083  1
  Cs  Cs2  1  0.49994772  0.73931493  0.44975793  1
  Cs  Cs3  1  0.99995537  0.76139606  0.04911291  1
  Be  Be4  1  0.50007371  0.99844834  0.87864805  1
  Be  Be5  1  0.00005065  0.50040130  0.62105633  1
  Ba  Ba6  1  0.99997356  0.00059951  0.51784471  1
  Ba  Ba7  1  0.49997705  0.50041056  0.98188770  1
  I  I8  1  0.49986255  0.18514630  0.00605460  1
  I  I9  1  0.24867184  0.00241883  0.28215060  1
  I  I10  1  0.75107182  0.00244303  0.28229878  1
  I  I11  1  0.99990017  0.31549417  0.49082960  1
  I  I12  1  0.27485955  0.99584521  0.74641509  1
  I  I13  1  0.72567808  0.99595391  0.74690455  1
  I  I14  1  0.49995452  0.81502476  0.01242568  1
  I  I15  1  0.74860905  0.50008138  0.21760409  1
  I  I16  1  0.25115748  0.50005744  0.21746177  1
  I  I17  1  0.99997060  0.68563682  0.49001876  1
  I  I18  1  0.22561736  0.49992918  0.75285563  1
  I  I19  1  0.77476353  0.50000828  0.75320956  1
