# generated using pymatgen
data_Cs2BePdI6
_symmetry_space_group_name_H-M   'P 1'
_cell_length_a   8.10970214
_cell_length_b   11.40682046
_cell_length_c   8.75164215
_cell_angle_alpha   90.00350670
_cell_angle_beta   89.99988207
_cell_angle_gamma   89.99947066
_symmetry_Int_Tables_number   1
_chemical_formula_structural   Cs2BePdI6
_chemical_formula_sum   'Cs4 Be2 Pd2 I12'
_cell_volume   809.57867399
_cell_formula_units_Z   2
loop_
 _symmetry_equiv_pos_site_id
 _symmetry_equiv_pos_as_xyz
  1  'x, y, z'
loop_
 _atom_site_type_symbol
 _atom_site_label
 _atom_site_symmetry_multiplicity
 _atom_site_fract_x
 _atom_site_fract_y
 _atom_site_fract_z
 _atom_site_occupancy
  Cs  Cs0  1  0.49999290  0.25133317  0.48315255  1
  Cs  Cs1  1  0.99996960  0.24045920  0.00864931  1
  Cs  Cs2  1  0.49998421  0.74031425  0.49376578  1
  Cs  Cs3  1  0.99999484  0.75139950  0.01750971  1
  Be  Be4  1  0.49998104  0.00494890  0.86694977  1
  Be  Be5  1  0.99998978  0.50492110  0.63365918  1
  Pd  Pd6  1  0.99997294  0.01146563  0.49922420  1
  Pd  Pd7  1  0.49997899  0.51151570  0.00133133  1
  I  I8  1  0.49999550  0.18847731  0.98538489  1
  I  I9  1  0.22539445  0.00496629  0.28631171  1
  I  I10  1  0.77455859  0.00494855  0.28630891  1
  I  I11  1  0.99997382  0.32168915  0.50448630  1
  I  I12  1  0.22820387  0.98509864  0.72602655  1
  I  I13  1  0.77174012  0.98505117  0.72601335  1
  I  I14  1  0.49997096  0.82170151  0.99605320  1
  I  I15  1  0.72533435  0.50516126  0.21431972  1
  I  I16  1  0.27465856  0.50515160  0.21434993  1
  I  I17  1  0.00001475  0.68848441  0.51536266  1
  I  I18  1  0.27164415  0.48477806  0.77468153  1
  I  I19  1  0.72826851  0.48487434  0.77462335  1
