# generated using pymatgen
data_TlGaH12C2(I3N)2
_symmetry_space_group_name_H-M   'P 1'
_cell_length_a   8.49681040
_cell_length_b   12.22096188
_cell_length_c   8.34053189
_cell_angle_alpha   86.90939816
_cell_angle_beta   90.00157181
_cell_angle_gamma   90.02793320
_symmetry_Int_Tables_number   1
_chemical_formula_structural   TlGaH12C2(I3N)2
_chemical_formula_sum   'Tl2 Ga2 H24 C4 I12 N4'
_cell_volume   864.81434239
_cell_formula_units_Z   2
loop_
 _symmetry_equiv_pos_site_id
 _symmetry_equiv_pos_as_xyz
  1  'x, y, z'
loop_
 _atom_site_type_symbol
 _atom_site_label
 _atom_site_symmetry_multiplicity
 _atom_site_fract_x
 _atom_site_fract_y
 _atom_site_fract_z
 _atom_site_occupancy
  C  C0  1  0.39682144  0.24997553  0.41467289  1
  C  C1  1  0.89794334  0.25014208  0.08640198  1
  C  C2  1  0.60317513  0.75002761  0.58534227  1
  C  C3  1  0.10206374  0.74985906  0.91361001  1
  N  N4  1  0.53722031  0.24852375  0.52056467  1
  N  N5  1  0.03771931  0.25151894  0.97967717  1
  N  N6  1  0.46277519  0.75148059  0.47945202  1
  N  N7  1  0.96228809  0.74847885  0.02033533  1
  H  H8  1  0.43609695  0.25189085  0.28946719  1
  H  H9  1  0.32801044  0.17564178  0.44216332  1
  H  H10  1  0.32700997  0.32281503  0.43658155  1
  H  H11  1  0.60618453  0.18065097  0.49935979  1
  H  H12  1  0.60558490  0.31839864  0.49663276  1
  H  H13  1  0.50732549  0.24497663  0.64235824  1
  H  H14  1  0.93799552  0.24828473  0.21135875  1
  H  H15  1  0.82781749  0.17732214  0.06503465  1
  H  H16  1  0.82916965  0.32451600  0.05931270  1
  H  H17  1  0.10604063  0.18161247  0.00327945  1
  H  H18  1  0.10695607  0.31936113  0.00041778  1
  H  H19  1  0.00715804  0.25502737  0.85804925  1
  H  H20  1  0.56390132  0.74811339  0.71054859  1
  H  H21  1  0.67298455  0.67718714  0.56343333  1
  H  H22  1  0.67198788  0.82436040  0.55785052  1
  H  H23  1  0.39381188  0.81935378  0.50065777  1
  H  H24  1  0.39441031  0.68160584  0.50338348  1
  H  H25  1  0.49266959  0.75502818  0.35765827  1
  H  H26  1  0.06201141  0.75171851  0.78865318  1
  H  H27  1  0.17218899  0.82267871  0.93498077  1
  H  H28  1  0.17083812  0.67548501  0.94069603  1
  H  H29  1  0.89396418  0.81838427  0.99673560  1
  H  H30  1  0.89305367  0.68063564  0.99959402  1
  H  H31  1  0.99284982  0.74496990  0.14196339  1
  Ga  Ga32  1  0.50000296  0.00000559  0.00000925  1
  Ga  Ga33  1  0.99999344  0.50000204  0.49999644  1
  Tl  Tl34  1  0.00000206  0.00000289  0.50000983  1
  Tl  Tl35  1  0.49999785  0.50001021  0.99998943  1
  I  I36  1  0.47617883  0.23060598  0.94332751  1
  I  I37  1  0.20623388  0.00319672  0.15725962  1
  I  I38  1  0.65471853  0.01839487  0.29858314  1
  I  I39  1  0.97556701  0.26942834  0.55717266  1
  I  I40  1  0.34528705  0.98161343  0.70143539  1
  I  I41  1  0.79377241  0.99680729  0.84275911  1
  I  I42  1  0.52382816  0.76940387  0.05669210  1
  I  I43  1  0.70635988  0.49662718  0.34243203  1
  I  I44  1  0.15500286  0.48167467  0.20157731  1
  I  I45  1  0.02442452  0.73057592  0.44283543  1
  I  I46  1  0.29363112  0.50337593  0.65756533  1
  I  I47  1  0.84499521  0.51832841  0.79842531  1
