# generated using pymatgen
data_Cs2BeCI6
_symmetry_space_group_name_H-M   'P 1'
_cell_length_a   8.15692409
_cell_length_b   11.69401092
_cell_length_c   8.74634120
_cell_angle_alpha   90.93099356
_cell_angle_beta   89.99876272
_cell_angle_gamma   90.00102247
_symmetry_Int_Tables_number   1
_chemical_formula_structural   Cs2BeCI6
_chemical_formula_sum   'Cs4 Be2 C2 I12'
_cell_volume   834.17850718
_cell_formula_units_Z   2
loop_
 _symmetry_equiv_pos_site_id
 _symmetry_equiv_pos_as_xyz
  1  'x, y, z'
loop_
 _atom_site_type_symbol
 _atom_site_label
 _atom_site_symmetry_multiplicity
 _atom_site_fract_x
 _atom_site_fract_y
 _atom_site_fract_z
 _atom_site_occupancy
  Cs  Cs0  1  0.50000359  0.24671395  0.50854605  1
  Cs  Cs1  1  0.00000979  0.25337560  0.99191555  1
  Cs  Cs2  1  0.50000212  0.74313420  0.49048664  1
  Cs  Cs3  1  0.99999718  0.75668631  0.00913582  1
  Be  Be4  1  0.49997748  0.93676616  0.86273839  1
  Be  Be5  1  -0.00002297  0.56401685  0.63749356  1
  C  C6  1  0.00000873  0.03712284  0.42882003  1
  C  C7  1  0.50001255  0.46211218  0.07121738  1
  I  I8  1  0.50000803  0.26937480  0.02098096  1
  I  I9  1  0.22242182  0.00610954  0.27276682  1
  I  I10  1  0.77761996  0.00610424  0.27274490  1
  I  I11  1  0.00000282  0.23002844  0.47924319  1
  I  I12  1  0.25586679  0.00059029  0.76286960  1
  I  I13  1  0.74406974  0.00059826  0.76286726  1
  I  I14  1  0.49999462  0.77367360  0.00720521  1
  I  I15  1  0.72227744  0.49364133  0.22722608  1
  I  I16  1  0.27778234  0.49363704  0.22726224  1
  I  I17  1  0.00000907  0.72674520  0.49260387  1
  I  I18  1  0.24385511  0.49938793  0.73684265  1
  I  I19  1  0.75604915  0.49940557  0.73682262  1
