# generated using pymatgen
data_Cs2BiBI6
_symmetry_space_group_name_H-M   'P 1'
_cell_length_a   9.09475290
_cell_length_b   12.48879120
_cell_length_c   8.06533715
_cell_angle_alpha   89.99973550
_cell_angle_beta   83.91379181
_cell_angle_gamma   90.01527962
_symmetry_Int_Tables_number   1
_chemical_formula_structural   Cs2BiBI6
_chemical_formula_sum   'Cs4 Bi2 B2 I12'
_cell_volume   910.91738623
_cell_formula_units_Z   2
loop_
 _symmetry_equiv_pos_site_id
 _symmetry_equiv_pos_as_xyz
  1  'x, y, z'
loop_
 _atom_site_type_symbol
 _atom_site_label
 _atom_site_symmetry_multiplicity
 _atom_site_fract_x
 _atom_site_fract_y
 _atom_site_fract_z
 _atom_site_occupancy
  Cs  Cs0  1  0.49750334  0.24779639  0.47737778  1
  Cs  Cs1  1  0.95847357  0.23725938  0.00296140  1
  Cs  Cs2  1  0.54134951  0.73724480  0.49670450  1
  Cs  Cs3  1  0.00283639  0.74771874  0.02281874  1
  B  B4  1  0.41522911  0.06081219  0.95497953  1
  B  B5  1  0.08465336  0.56074759  0.54513863  1
  Bi  Bi6  1  0.98447880  0.99190631  0.56502470  1
  Bi  Bi7  1  0.51536025  0.49182150  0.93493845  1
  I  I8  1  0.39054895  0.24500643  0.99227053  1
  I  I9  1  0.30977988  0.99108391  0.19629375  1
  I  I10  1  0.77575459  0.97182954  0.30393941  1
  I  I11  1  0.99947543  0.22473054  0.51086106  1
  I  I12  1  0.28765631  0.00439967  0.73500144  1
  I  I13  1  0.65289996  0.02494430  0.85212549  1
  I  I14  1  0.50099823  0.72472713  0.98854985  1
  I  I15  1  0.72438209  0.47185546  0.19577951  1
  I  I16  1  0.19041621  0.49122309  0.30382786  1
  I  I17  1  0.10916352  0.74498936  0.50817331  1
  I  I18  1  0.21204174  0.50438970  0.76528997  1
  I  I19  1  0.84694413  0.52473829  0.64773289  1
