# generated using pymatgen
data_Cs2BAuI6
_symmetry_space_group_name_H-M   'P 1'
_cell_length_a   8.48566359
_cell_length_b   12.64692967
_cell_length_c   8.48057202
_cell_angle_alpha   90.02988266
_cell_angle_beta   80.18523406
_cell_angle_gamma   89.97972758
_symmetry_Int_Tables_number   1
_chemical_formula_structural   Cs2BAuI6
_chemical_formula_sum   'Cs4 B2 Au2 I12'
_cell_volume   896.79390713
_cell_formula_units_Z   2
loop_
 _symmetry_equiv_pos_site_id
 _symmetry_equiv_pos_as_xyz
  1  'x, y, z'
loop_
 _atom_site_type_symbol
 _atom_site_label
 _atom_site_symmetry_multiplicity
 _atom_site_fract_x
 _atom_site_fract_y
 _atom_site_fract_z
 _atom_site_occupancy
  Cs  Cs0  1  0.51000716  0.22110722  0.48076143  1
  Cs  Cs1  1  0.98049918  0.22122080  0.01093322  1
  Cs  Cs2  1  0.52001513  0.72151502  0.48978815  1
  Cs  Cs3  1  0.98927069  0.72096702  0.01881914  1
  B  B4  1  0.43948602  0.06084078  0.93987581  1
  B  B5  1  0.06077847  0.56093809  0.55974006  1
  Au  Au6  1  0.92774969  0.06844971  0.42782557  1
  Au  Au7  1  0.57189621  0.56831790  0.07259279  1
  I  I8  1  0.45035079  0.24284132  0.95094168  1
  I  I9  1  0.33383224  0.00651033  0.18889757  1
  I  I10  1  0.77568244  0.93866283  0.27485908  1
  I  I11  1  0.04388538  0.23212674  0.54484277  1
  I  I12  1  0.27309406  0.00123361  0.77369580  1
  I  I13  1  0.68830043  0.00647601  0.83358438  1
  I  I14  1  0.45549813  0.73201580  0.95596212  1
  I  I15  1  0.72418163  0.43851869  0.22525206  1
  I  I16  1  0.16601809  0.50620395  0.31073523  1
  I  I17  1  0.05022285  0.74294373  0.54848591  1
  I  I18  1  0.22725978  0.50133398  0.72580241  1
  I  I19  1  0.81191699  0.50700081  0.66639361  1
