# generated using pymatgen
data_GaH12AuC2(I3N)2
_symmetry_space_group_name_H-M   'P 1'
_cell_length_a   8.08505185
_cell_length_b   12.16400224
_cell_length_c   8.45347553
_cell_angle_alpha   86.58959810
_cell_angle_beta   90.03170343
_cell_angle_gamma   90.02638162
_symmetry_Int_Tables_number   1
_chemical_formula_structural   GaH12AuC2(I3N)2
_chemical_formula_sum   'Ga2 H24 Au2 C4 I12 N4'
_cell_volume   829.89795923
_cell_formula_units_Z   2
loop_
 _symmetry_equiv_pos_site_id
 _symmetry_equiv_pos_as_xyz
  1  'x, y, z'
loop_
 _atom_site_type_symbol
 _atom_site_label
 _atom_site_symmetry_multiplicity
 _atom_site_fract_x
 _atom_site_fract_y
 _atom_site_fract_z
 _atom_site_occupancy
  C  C0  1  0.41053039  0.25180729  0.41277183  1
  C  C1  1  0.91139443  0.24827854  0.08770693  1
  C  C2  1  0.58946547  0.74819678  0.58724294  1
  C  C3  1  0.08861382  0.75172504  0.91230310  1
  N  N4  1  0.55163156  0.24593501  0.52493394  1
  N  N5  1  0.05199417  0.25405337  0.97510388  1
  N  N6  1  0.44836227  0.75406965  0.47508341  1
  N  N7  1  0.94801361  0.74594686  0.02490576  1
  H  H8  1  0.45873970  0.25576634  0.29154164  1
  H  H9  1  0.33404621  0.17822937  0.43408626  1
  H  H10  1  0.33886561  0.32588341  0.43268081  1
  H  H11  1  0.62410183  0.17714440  0.50606178  1
  H  H12  1  0.62686020  0.31481426  0.50663515  1
  H  H13  1  0.51473803  0.24110050  0.64346723  1
  H  H14  1  0.96015480  0.24441682  0.20877522  1
  H  H15  1  0.83947564  0.17420162  0.06816136  1
  H  H16  1  0.83496528  0.32187097  0.06652448  1
  H  H17  1  0.12714229  0.18515668  0.99327636  1
  H  H18  1  0.12468015  0.32284313  0.99367743  1
  H  H19  1  0.01459234  0.25882517  0.85668062  1
  H  H20  1  0.54125962  0.74423977  0.70847349  1
  H  H21  1  0.66112890  0.67411955  0.56733354  1
  H  H22  1  0.66595217  0.82177339  0.56592591  1
  H  H23  1  0.37589351  0.82286141  0.49395639  1
  H  H24  1  0.37313330  0.68519080  0.49338391  1
  H  H25  1  0.48525438  0.75890236  0.35654931  1
  H  H26  1  0.03985297  0.75558744  0.79123452  1
  H  H27  1  0.16052946  0.82580296  0.93184963  1
  H  H28  1  0.16504438  0.67813352  0.93348407  1
  H  H29  1  0.87286244  0.81484197  0.00673318  1
  H  H30  1  0.87533007  0.67715622  0.00633136  1
  H  H31  1  0.98541437  0.74117501  0.14332901  1
  Ga  Ga32  1  0.50004404  0.00000407  0.00005576  1
  Ga  Ga33  1  0.99998666  0.50000217  0.50001570  1
  Au  Au34  1  0.99999380  0.00000235  0.49998319  1
  Au  Au35  1  0.50000015  0.50000294  0.99999638  1
  I  I36  1  0.48526911  0.22565691  0.94435875  1
  I  I37  1  0.21849108  0.00416590  0.17316152  1
  I  I38  1  0.71689672  0.01357849  0.33881697  1
  I  I39  1  0.98480593  0.27435146  0.55595589  1
  I  I40  1  0.28305978  0.98642848  0.66118010  1
  I  I41  1  0.78151808  0.99583579  0.82684226  1
  I  I42  1  0.51474241  0.77434402  0.05566210  1
  I  I43  1  0.71847144  0.49574733  0.32663793  1
  I  I44  1  0.21708103  0.48656154  0.16120962  1
  I  I45  1  0.01518802  0.72565070  0.44405507  1
  I  I46  1  0.28152315  0.50425406  0.67336720  1
  I  I47  1  0.78292900  0.51344246  0.83879369  1
