# generated using pymatgen
data_Cs2InBI6
_symmetry_space_group_name_H-M   'P 1'
_cell_length_a   8.39353997
_cell_length_b   13.01687342
_cell_length_c   8.38545770
_cell_angle_alpha   90.02704609
_cell_angle_beta   76.75464318
_cell_angle_gamma   89.97909020
_symmetry_Int_Tables_number   1
_chemical_formula_structural   Cs2InBI6
_chemical_formula_sum   'Cs4 In2 B2 I12'
_cell_volume   891.80292214
_cell_formula_units_Z   2
loop_
 _symmetry_equiv_pos_site_id
 _symmetry_equiv_pos_as_xyz
  1  'x, y, z'
loop_
 _atom_site_type_symbol
 _atom_site_label
 _atom_site_symmetry_multiplicity
 _atom_site_fract_x
 _atom_site_fract_y
 _atom_site_fract_z
 _atom_site_occupancy
  Cs  Cs0  1  0.49862072  0.24934992  0.46540965  1
  Cs  Cs1  1  0.96485945  0.24971776  0.99872105  1
  Cs  Cs2  1  0.53569576  0.74987193  0.50167270  1
  Cs  Cs3  1  0.00098712  0.74928535  0.03435587  1
  B  B4  1  0.44113763  0.05470185  0.94172800  1
  B  B5  1  0.05910365  0.55488428  0.55794398  1
  In  In6  1  0.00852369  0.99971487  0.50882679  1
  In  In7  1  0.49135382  0.49955536  0.99118068  1
  I  I8  1  0.45519333  0.23050151  0.95560327  1
  I  I9  1  0.33283096  0.99467559  0.19739063  1
  I  I10  1  0.78186568  0.99041719  0.28091588  1
  I  I11  1  0.00647884  0.22752098  0.50728760  1
  I  I12  1  0.27367211  0.00835008  0.77460487  1
  I  I13  1  0.69642560  0.99444282  0.83256073  1
  I  I14  1  0.49265188  0.72736877  0.99377277  1
  I  I15  1  0.71775827  0.49019559  0.21930704  1
  I  I16  1  0.16690218  0.49437300  0.30232665  1
  I  I17  1  0.04550267  0.73069151  0.54377789  1
  I  I18  1  0.22665594  0.50847028  0.72492723  1
  I  I19  1  0.80372608  0.49513569  0.66747553  1
