# generated using pymatgen
data_Cs2BRhI6
_symmetry_space_group_name_H-M   'P 1'
_cell_length_a   8.09426372
_cell_length_b   11.79836183
_cell_length_c   8.10666103
_cell_angle_alpha   89.66785961
_cell_angle_beta   86.18222057
_cell_angle_gamma   90.37086247
_symmetry_Int_Tables_number   1
_chemical_formula_structural   Cs2BRhI6
_chemical_formula_sum   'Cs4 B2 Rh2 I12'
_cell_volume   772.42920021
_cell_formula_units_Z   2
loop_
 _symmetry_equiv_pos_site_id
 _symmetry_equiv_pos_as_xyz
  1  'x, y, z'
loop_
 _atom_site_type_symbol
 _atom_site_label
 _atom_site_symmetry_multiplicity
 _atom_site_fract_x
 _atom_site_fract_y
 _atom_site_fract_z
 _atom_site_occupancy
  Cs  Cs0  1  0.52197886  0.23469532  0.45840327  1
  Cs  Cs1  1  0.98516816  0.24911010  0.01928813  1
  Cs  Cs2  1  0.54544131  0.73958047  0.48074404  1
  Cs  Cs3  1  0.97720644  0.74762725  0.01392314  1
  B  B4  1  0.43471523  0.06296545  0.93781726  1
  B  B5  1  0.06120856  0.56315298  0.56570001  1
  Rh  Rh6  1  0.00616040  0.98710432  0.57949381  1
  Rh  Rh7  1  0.41765059  0.48692731  0.99468634  1
  I  I8  1  0.48914793  0.26477983  0.92726872  1
  I  I9  1  0.31090372  0.01377102  0.18086834  1
  I  I10  1  0.80750839  0.98429236  0.33172164  1
  I  I11  1  0.01936392  0.20834330  0.54287213  1
  I  I12  1  0.29091330  0.98898707  0.72016608  1
  I  I13  1  0.69505844  0.00317654  0.84657322  1
  I  I14  1  0.45708453  0.70799391  0.98906732  1
  I  I15  1  0.66052698  0.48090878  0.19863150  1
  I  I16  1  0.14518458  0.50151122  0.30616539  1
  I  I17  1  0.06908325  0.76482974  0.50611967  1
  I  I18  1  0.28548928  0.49541094  0.70544634  1
  I  I19  1  0.82015151  0.51405641  0.69483244  1
