# generated using pymatgen
data_Cs2SrBI6
_symmetry_space_group_name_H-M   'P 1'
_cell_length_a   8.53153448
_cell_length_b   13.71725188
_cell_length_c   8.28929850
_cell_angle_alpha   85.12001040
_cell_angle_beta   74.76759842
_cell_angle_gamma   83.30622584
_symmetry_Int_Tables_number   1
_chemical_formula_structural   Cs2SrBI6
_chemical_formula_sum   'Cs4 Sr2 B2 I12'
_cell_volume   928.12689847
_cell_formula_units_Z   2
loop_
 _symmetry_equiv_pos_site_id
 _symmetry_equiv_pos_as_xyz
  1  'x, y, z'
loop_
 _atom_site_type_symbol
 _atom_site_label
 _atom_site_symmetry_multiplicity
 _atom_site_fract_x
 _atom_site_fract_y
 _atom_site_fract_z
 _atom_site_occupancy
  Cs  Cs0  1  0.47791303  0.21614490  0.48941623  1
  Cs  Cs1  1  0.00018568  0.22603358  0.99092023  1
  Cs  Cs2  1  0.53936971  0.76088951  0.50504531  1
  Cs  Cs3  1  0.97224635  0.73485032  0.01789479  1
  B  B4  1  0.38617329  0.07856426  0.88862989  1
  B  B5  1  0.08904018  0.55719641  0.56293100  1
  Sr  Sr6  1  0.99723762  0.00895863  0.49841384  1
  Sr  Sr7  1  0.51999240  0.51572842  0.03251490  1
  I  I8  1  0.49929893  0.29535191  0.96814524  1
  I  I9  1  0.32169352  0.02140489  0.18441618  1
  I  I10  1  0.79150791  0.96730472  0.25272088  1
  I  I11  1  0.97242036  0.23403222  0.50937947  1
  I  I12  1  0.21350872  0.94793810  0.75627650  1
  I  I13  1  0.66310574  0.99801826  0.80037690  1
  I  I14  1  0.47302621  0.74218652  0.01667508  1
  I  I15  1  0.73258761  0.48221630  0.27814810  1
  I  I16  1  0.17982822  0.47941963  0.32094249  1
  I  I17  1  0.05198692  0.72166958  0.50577958  1
  I  I18  1  0.26975186  0.51134578  0.71932925  1
  I  I19  1  0.84907112  0.49997039  0.70183295  1
