# generated using pymatgen
data_Cs2BAsI6
_symmetry_space_group_name_H-M   'P 1'
_cell_length_a   8.79991969
_cell_length_b   12.21446239
_cell_length_c   7.99740847
_cell_angle_alpha   90.00205048
_cell_angle_beta   84.77691526
_cell_angle_gamma   89.98120485
_symmetry_Int_Tables_number   1
_chemical_formula_structural   Cs2BAsI6
_chemical_formula_sum   'Cs4 B2 As2 I12'
_cell_volume   856.04242413
_cell_formula_units_Z   2
loop_
 _symmetry_equiv_pos_site_id
 _symmetry_equiv_pos_as_xyz
  1  'x, y, z'
loop_
 _atom_site_type_symbol
 _atom_site_label
 _atom_site_symmetry_multiplicity
 _atom_site_fract_x
 _atom_site_fract_y
 _atom_site_fract_z
 _atom_site_occupancy
  Cs  Cs0  1  0.49771993  0.24956699  0.48311210  1
  Cs  Cs1  1  0.96041935  0.24076011  0.98621038  1
  Cs  Cs2  1  0.53973169  0.74084203  0.51418299  1
  Cs  Cs3  1  0.00190746  0.74967945  0.01654841  1
  B  B4  1  0.42256524  0.05891327  0.95193918  1
  B  B5  1  0.07759618  0.55893607  0.54791979  1
  As  As6  1  0.97785481  0.00199415  0.54738614  1
  As  As7  1  0.52225202  0.50213856  0.95252009  1
  I  I8  1  0.41190466  0.24649096  0.98677188  1
  I  I9  1  0.32400349  0.98799850  0.19854704  1
  I  I10  1  0.79022380  0.97755187  0.30292881  1
  I  I11  1  0.01031487  0.21523870  0.49377436  1
  I  I12  1  0.27347642  0.00378228  0.74385319  1
  I  I13  1  0.66291829  0.01707275  0.83858220  1
  I  I14  1  0.48896654  0.71524987  0.00685649  1
  I  I15  1  0.70973634  0.47758043  0.19709730  1
  I  I16  1  0.17591044  0.48783125  0.30132289  1
  I  I17  1  0.08838092  0.74648825  0.51286102  1
  I  I18  1  0.22679647  0.50380592  0.75591115  1
  I  I19  1  0.83726644  0.51730292  0.66146341  1
