# generated using pymatgen
data_Cs2GaBI6
_symmetry_space_group_name_H-M   'P 1'
_cell_length_a   8.29180241
_cell_length_b   12.88420106
_cell_length_c   8.28703203
_cell_angle_alpha   90.02120672
_cell_angle_beta   76.53734776
_cell_angle_gamma   89.98755820
_symmetry_Int_Tables_number   1
_chemical_formula_structural   Cs2GaBI6
_chemical_formula_sum   'Cs4 Ga2 B2 I12'
_cell_volume   861.00324250
_cell_formula_units_Z   2
loop_
 _symmetry_equiv_pos_site_id
 _symmetry_equiv_pos_as_xyz
  1  'x, y, z'
loop_
 _atom_site_type_symbol
 _atom_site_label
 _atom_site_symmetry_multiplicity
 _atom_site_fract_x
 _atom_site_fract_y
 _atom_site_fract_z
 _atom_site_occupancy
  Cs  Cs0  1  0.49735074  0.24837390  0.46265018  1
  Cs  Cs1  1  0.96212668  0.24872571  0.99752749  1
  Cs  Cs2  1  0.53815026  0.74882629  0.50284614  1
  Cs  Cs3  1  0.00229488  0.74825976  0.03706303  1
  B  B4  1  0.44006952  0.05527122  0.94051550  1
  B  B5  1  0.06016524  0.55533222  0.55919406  1
  Ga  Ga6  1  0.00437293  0.00546378  0.50443597  1
  Ga  Ga7  1  0.49543153  0.50542966  0.99569828  1
  I  I8  1  0.45359780  0.23309919  0.95395661  1
  I  I9  1  0.33094698  0.99467583  0.19990361  1
  I  I10  1  0.78802187  0.98916361  0.28721580  1
  I  I11  1  0.00433511  0.22273958  0.50493467  1
  I  I12  1  0.27104665  0.00750671  0.77181219  1
  I  I13  1  0.69920814  0.99451722  0.83073021  1
  I  I14  1  0.49493311  0.72270071  0.99593514  1
  I  I15  1  0.71176348  0.48911040  0.21292815  1
  I  I16  1  0.16889765  0.49434860  0.29984401  1
  I  I17  1  0.04697738  0.73316145  0.54549667  1
  I  I18  1  0.22928588  0.50755784  0.72777809  1
  I  I19  1  0.80096953  0.49496062  0.66932301  1
