# generated using pymatgen
data_Cs2CuBI6
_symmetry_space_group_name_H-M   'P 1'
_cell_length_a   8.33875962
_cell_length_b   12.74952877
_cell_length_c   8.33587018
_cell_angle_alpha   90.01508031
_cell_angle_beta   79.57328852
_cell_angle_gamma   89.97863174
_symmetry_Int_Tables_number   1
_chemical_formula_structural   Cs2CuBI6
_chemical_formula_sum   'Cs4 Cu2 B2 I12'
_cell_volume   871.59592208
_cell_formula_units_Z   2
loop_
 _symmetry_equiv_pos_site_id
 _symmetry_equiv_pos_as_xyz
  1  'x, y, z'
loop_
 _atom_site_type_symbol
 _atom_site_label
 _atom_site_symmetry_multiplicity
 _atom_site_fract_x
 _atom_site_fract_y
 _atom_site_fract_z
 _atom_site_occupancy
  Cs  Cs0  1  0.50749503  0.23072180  0.47638624  1
  Cs  Cs1  1  0.97587381  0.23099940  0.00779130  1
  Cs  Cs2  1  0.52460159  0.73130104  0.49285561  1
  Cs  Cs3  1  0.99179385  0.73048754  0.02323620  1
  B  B4  1  0.44105006  0.05536849  0.94160157  1
  B  B5  1  0.05937568  0.55548241  0.55795054  1
  Cu  Cu6  1  0.93910278  0.06382808  0.43856372  1
  Cu  Cu7  1  0.55971687  0.56371527  0.06250873  1
  I  I8  1  0.45780193  0.23561718  0.95837155  1
  I  I9  1  0.33174763  0.99931612  0.19431815  1
  I  I10  1  0.78710731  0.95392555  0.28618540  1
  I  I11  1  0.03216987  0.22660115  0.53284408  1
  I  I12  1  0.27036028  0.00386969  0.77128587  1
  I  I13  1  0.69354642  0.99920248  0.83157057  1
  I  I14  1  0.46708154  0.72654146  0.96793253  1
  I  I15  1  0.71285115  0.45381035  0.21378409  1
  I  I16  1  0.16825668  0.49898339  0.30526234  1
  I  I17  1  0.04304423  0.73573784  0.54084114  1
  I  I18  1  0.23013166  0.50392744  0.72817849  1
  I  I19  1  0.80683698  0.49978768  0.66832068  1
