# generated using pymatgen
data_GaH12IrC2(I3N)2
_symmetry_space_group_name_H-M   'P 1'
_cell_length_a   8.21633048
_cell_length_b   11.73198259
_cell_length_c   8.13984351
_cell_angle_alpha   92.64852065
_cell_angle_beta   90.00621627
_cell_angle_gamma   89.97444392
_symmetry_Int_Tables_number   1
_chemical_formula_structural   GaH12IrC2(I3N)2
_chemical_formula_sum   'Ga2 H24 Ir2 C4 I12 N4'
_cell_volume   783.79259631
_cell_formula_units_Z   2
loop_
 _symmetry_equiv_pos_site_id
 _symmetry_equiv_pos_as_xyz
  1  'x, y, z'
loop_
 _atom_site_type_symbol
 _atom_site_label
 _atom_site_symmetry_multiplicity
 _atom_site_fract_x
 _atom_site_fract_y
 _atom_site_fract_z
 _atom_site_occupancy
  C  C0  1  0.39620786  0.25090550  0.41352951  1
  C  C1  1  0.89741184  0.24933572  0.08747777  1
  C  C2  1  0.60379013  0.74909845  0.58648275  1
  C  C3  1  0.10259397  0.75066676  0.91253642  1
  N  N4  1  0.54004224  0.25194187  0.52272251  1
  N  N5  1  0.04056584  0.24808535  0.97741188  1
  N  N6  1  0.45995571  0.74806290  0.47729028  1
  N  N7  1  0.95944182  0.75191256  0.02260477  1
  H  H8  1  0.43755416  0.24830041  0.28563070  1
  H  H9  1  0.32360458  0.17540267  0.43632685  1
  H  H10  1  0.32513404  0.32827592  0.44006246  1
  H  H11  1  0.61055485  0.17936208  0.49844842  1
  H  H12  1  0.61221990  0.32231241  0.50186935  1
  H  H13  1  0.50816450  0.25498103  0.64727315  1
  H  H14  1  0.93956320  0.25200582  0.21510795  1
  H  H15  1  0.82614253  0.17200697  0.06154292  1
  H  H16  1  0.82468144  0.32489391  0.06503739  1
  H  H17  1  0.11282836  0.17765286  0.99793160  1
  H  H18  1  0.11124482  0.32060786  0.00124226  1
  H  H19  1  0.00797801  0.24502996  0.85305994  1
  H  H20  1  0.56244481  0.75170467  0.71438148  1
  H  H21  1  0.67486347  0.67172820  0.55995051  1
  H  H22  1  0.67639413  0.82460159  0.56368386  1
  H  H23  1  0.38944298  0.82064148  0.50156510  1
  H  H24  1  0.38777784  0.67769099  0.49814637  1
  H  H25  1  0.49183148  0.74502263  0.35274004  1
  H  H26  1  0.06044054  0.74799881  0.78490715  1
  H  H27  1  0.17386172  0.82799590  0.93847404  1
  H  H28  1  0.17532667  0.67510887  0.93497154  1
  H  H29  1  0.88717550  0.82234349  0.00208905  1
  H  H30  1  0.88876572  0.67938860  0.99877256  1
  H  H31  1  0.99203167  0.75496659  0.14695598  1
  Ga  Ga32  1  0.50000246  0.00000722  0.00000364  1
  Ga  Ga33  1  0.99998069  0.50000584  0.49998479  1
  Ir  Ir34  1  -0.00000036  0.00000199  0.50000820  1
  Ir  Ir35  1  0.50000044  0.50000436  1.00000070  1
  I  I36  1  0.47538557  0.26947267  0.95077417  1
  I  I37  1  0.16894204  0.01078765  0.21173509  1
  I  I38  1  0.71565585  0.00003849  0.32700995  1
  I  I39  1  0.97461774  0.23047018  0.54976790  1
  I  I40  1  0.28434512  0.99996556  0.67300590  1
  I  I41  1  0.83106062  0.98921288  0.78828281  1
  I  I42  1  0.52461823  0.73053569  0.04923520  1
  I  I43  1  0.66872380  0.48918545  0.28835222  1
  I  I44  1  0.21558902  0.50008198  0.17281815  1
  I  I45  1  0.02538334  0.76953273  0.45024988  1
  I  I46  1  0.33127139  0.51081945  0.71165504  1
  I  I47  1  0.78441144  0.49992331  0.82718639  1
