# generated using pymatgen
data_Cs2BI6N
_symmetry_space_group_name_H-M   'P 1'
_cell_length_a   7.98343752
_cell_length_b   10.52935113
_cell_length_c   9.29140112
_cell_angle_alpha   90.21330026
_cell_angle_beta   90.00519911
_cell_angle_gamma   90.00055856
_symmetry_Int_Tables_number   1
_chemical_formula_structural   Cs2BI6N
_chemical_formula_sum   'Cs4 B2 I12 N2'
_cell_volume   781.03363625
_cell_formula_units_Z   2
loop_
 _symmetry_equiv_pos_site_id
 _symmetry_equiv_pos_as_xyz
  1  'x, y, z'
loop_
 _atom_site_type_symbol
 _atom_site_label
 _atom_site_symmetry_multiplicity
 _atom_site_fract_x
 _atom_site_fract_y
 _atom_site_fract_z
 _atom_site_occupancy
  Cs  Cs0  1  0.49999208  0.26533427  0.48854075  1
  Cs  Cs1  1  0.99999794  0.24442683  0.00923789  1
  Cs  Cs2  1  0.49995455  0.74496957  0.49297577  1
  Cs  Cs3  1  0.99999316  0.76568958  0.00538287  1
  B  B4  1  0.50002016  0.00246681  0.86933250  1
  B  B5  1  0.00001429  0.49724668  0.62902303  1
  N  N6  1  1.00001209  0.98555336  0.42401166  1
  N  N7  1  0.49996135  0.46348773  0.08348066  1
  I  I8  1  0.50000180  0.18620811  0.99757363  1
  I  I9  1  0.21289250  0.00434597  0.29097625  1
  I  I10  1  0.78707353  0.00435401  0.29099718  1
  I  I11  1  0.99998176  0.30985559  0.51111542  1
  I  I12  1  0.26421297  0.00234318  0.72907924  1
  I  I13  1  0.73588008  0.00232877  0.72918688  1
  I  I14  1  0.49998770  0.81993027  0.99648180  1
  I  I15  1  0.71289370  0.50834204  0.20900884  1
  I  I16  1  0.28702656  0.50827199  0.20898331  1
  I  I17  1  0.99997728  0.67723197  0.49494490  1
  I  I18  1  0.23554342  0.50341847  0.76972177  1
  I  I19  1  0.76452844  0.50341912  0.76973446  1
