# generated using pymatgen
data_Cs2PbCI6
_symmetry_space_group_name_H-M   'P 1'
_cell_length_a   8.42086251
_cell_length_b   12.14403496
_cell_length_c   8.69548077
_cell_angle_alpha   88.36020501
_cell_angle_beta   90.00151826
_cell_angle_gamma   90.00082372
_symmetry_Int_Tables_number   1
_chemical_formula_structural   Cs2PbCI6
_chemical_formula_sum   'Cs4 Pb2 C2 I12'
_cell_volume   888.86395605
_cell_formula_units_Z   2
loop_
 _symmetry_equiv_pos_site_id
 _symmetry_equiv_pos_as_xyz
  1  'x, y, z'
loop_
 _atom_site_type_symbol
 _atom_site_label
 _atom_site_symmetry_multiplicity
 _atom_site_fract_x
 _atom_site_fract_y
 _atom_site_fract_z
 _atom_site_occupancy
  Cs  Cs0  1  0.50002385  0.25409335  0.48520487  1
  Cs  Cs1  1  0.00002732  0.24679823  0.01672790  1
  Cs  Cs2  1  0.49998600  0.74596105  0.47813263  1
  Cs  Cs3  1  0.99997916  0.75479144  0.02054119  1
  C  C4  1  0.49995673  0.96237322  0.92341654  1
  C  C5  1  0.99996690  0.53718513  0.57635595  1
  Pb  Pb6  1  0.00002919  0.00314008  0.48751337  1
  Pb  Pb7  1  0.50003514  0.49613795  0.01216270  1
  I  I8  1  0.50004369  0.25087063  0.98976182  1
  I  I9  1  0.25803232  0.99451294  0.25172281  1
  I  I10  1  0.74217836  0.99445865  0.25152778  1
  I  I11  1  0.00002419  0.24847297  0.51183949  1
  I  I12  1  0.28222736  0.99404707  0.77077746  1
  I  I13  1  0.71758294  0.99395220  0.77060867  1
  I  I14  1  0.49987042  0.77576968  0.97246696  1
  I  I15  1  0.75812502  0.50576996  0.24784378  1
  I  I16  1  0.24212860  0.50581213  0.24804117  1
  I  I17  1  0.99991266  0.72368809  0.52689956  1
  I  I18  1  0.21762304  0.50572509  0.72922117  1
  I  I19  1  0.78219248  0.50566448  0.72902297  1
