# generated using pymatgen
data_Cs2CdCI6
_symmetry_space_group_name_H-M   'P 1'
_cell_length_a   8.52686488
_cell_length_b   11.22154065
_cell_length_c   9.05498861
_cell_angle_alpha   92.87510835
_cell_angle_beta   89.99854596
_cell_angle_gamma   90.00342545
_symmetry_Int_Tables_number   1
_chemical_formula_structural   Cs2CdCI6
_chemical_formula_sum   'Cs4 Cd2 C2 I12'
_cell_volume   865.33199114
_cell_formula_units_Z   2
loop_
 _symmetry_equiv_pos_site_id
 _symmetry_equiv_pos_as_xyz
  1  'x, y, z'
loop_
 _atom_site_type_symbol
 _atom_site_label
 _atom_site_symmetry_multiplicity
 _atom_site_fract_x
 _atom_site_fract_y
 _atom_site_fract_z
 _atom_site_occupancy
  Cs  Cs0  1  0.50000601  0.25292286  0.47294147  1
  Cs  Cs1  1  0.00000546  0.24700208  0.02705572  1
  Cs  Cs2  1  0.50000105  0.75333512  0.49331119  1
  Cs  Cs3  1  0.99998760  0.74656829  0.00665310  1
  C  C4  1  0.50002526  0.05282883  0.90998138  1
  C  C5  1  0.99997593  0.44710254  0.59000985  1
  Cd  Cd6  1  0.00000472  0.98129271  0.41125710  1
  Cd  Cd7  1  0.49997935  0.51862307  0.08871484  1
  I  I8  1  0.50001389  0.25479708  0.00214134  1
  I  I9  1  0.26630331  0.99105149  0.23456325  1
  I  I10  1  0.73366445  0.99104184  0.23458036  1
  I  I11  1  0.99998636  0.24512775  0.49783519  1
  I  I12  1  0.28994303  0.02420365  0.76386254  1
  I  I13  1  0.71005949  0.02416766  0.76387105  1
  I  I14  1  0.49998314  0.72173501  0.93013555  1
  I  I15  1  0.76630641  0.50888116  0.26540783  1
  I  I16  1  0.23367562  0.50887352  0.26539905  1
  I  I17  1  0.00001665  0.77819282  0.56984531  1
  I  I18  1  0.21007207  0.47572568  0.73611360  1
  I  I19  1  0.78993556  0.47575116  0.73610908  1
