# generated using pymatgen
data_Cs2ZrCI6
_symmetry_space_group_name_H-M   'P 1'
_cell_length_a   8.58292475
_cell_length_b   12.16842734
_cell_length_c   8.54726238
_cell_angle_alpha   87.57434764
_cell_angle_beta   92.35410156
_cell_angle_gamma   94.13952911
_symmetry_Int_Tables_number   1
_chemical_formula_structural   Cs2ZrCI6
_chemical_formula_sum   'Cs4 Zr2 C2 I12'
_cell_volume   888.90774422
_cell_formula_units_Z   2
loop_
 _symmetry_equiv_pos_site_id
 _symmetry_equiv_pos_as_xyz
  1  'x, y, z'
loop_
 _atom_site_type_symbol
 _atom_site_label
 _atom_site_symmetry_multiplicity
 _atom_site_fract_x
 _atom_site_fract_y
 _atom_site_fract_z
 _atom_site_occupancy
  Cs  Cs0  1  0.53272899  0.23690611  0.48130237  1
  Cs  Cs1  1  0.01998641  0.22720144  -0.00673553  1
  Cs  Cs2  1  0.49239340  0.75517482  0.48847989  1
  Cs  Cs3  1  0.00655853  0.75187353  0.99694815  1
  C  C4  1  0.63982474  0.24479593  0.86772100  1
  C  C5  1  0.74563905  0.24569535  0.77084870  1
  Zr  Zr6  1  0.01883821  0.98978680  0.48959776  1
  Zr  Zr7  1  0.49035037  0.54041244  0.99526817  1
  I  I8  1  0.47462440  0.27705077  0.01481811  1
  I  I9  1  0.25429175  0.99340891  0.24952162  1
  I  I10  1  0.77316980  0.99281262  0.24557838  1
  I  I11  1  0.03906673  0.22355311  0.48057241  1
  I  I12  1  0.26453818  0.99335549  0.73167878  1
  I  I13  1  0.78849839  0.96822305  0.71992032  1
  I  I14  1  0.48986053  0.76643915  0.00585373  1
  I  I15  1  0.73877088  0.51269415  0.22585766  1
  I  I16  1  0.26986211  0.48501403  0.23606005  1
  I  I17  1  0.01313214  0.75039370  0.48265600  1
  I  I18  1  0.24094379  0.50808615  0.76617794  1
  I  I19  1  0.70686698  0.53634678  0.75766329  1
