# generated using pymatgen
data_GaSbH12C2(I3N)2
_symmetry_space_group_name_H-M   'P 1'
_cell_length_a   8.51495968
_cell_length_b   12.18065829
_cell_length_c   8.38091251
_cell_angle_alpha   91.12505792
_cell_angle_beta   90.00809873
_cell_angle_gamma   89.98344135
_symmetry_Int_Tables_number   1
_chemical_formula_structural   GaSbH12C2(I3N)2
_chemical_formula_sum   'Ga2 Sb2 H24 C4 I12 N4'
_cell_volume   869.08230904
_cell_formula_units_Z   2
loop_
 _symmetry_equiv_pos_site_id
 _symmetry_equiv_pos_as_xyz
  1  'x, y, z'
loop_
 _atom_site_type_symbol
 _atom_site_label
 _atom_site_symmetry_multiplicity
 _atom_site_fract_x
 _atom_site_fract_y
 _atom_site_fract_z
 _atom_site_occupancy
  C  C0  1  0.39735869  0.25035475  0.41583895  1
  C  C1  1  0.89852032  0.24986852  0.08523114  1
  C  C2  1  0.60263946  0.74964851  0.58417401  1
  C  C3  1  0.10148588  0.75013283  0.91478323  1
  N  N4  1  0.53747642  0.25073771  0.52124496  1
  N  N5  1  0.03799627  0.24930553  0.97900097  1
  N  N6  1  0.46252128  0.74926674  0.47876811  1
  N  N7  1  0.96201196  0.75069189  0.02101608  1
  H  H8  1  0.43677940  0.24932840  0.29149044  1
  H  H9  1  0.32808452  0.17691320  0.43919560  1
  H  H10  1  0.32834388  0.32442782  0.44106265  1
  H  H11  1  0.60562856  0.18121298  0.49806467  1
  H  H12  1  0.60652567  0.31924226  0.49902043  1
  H  H13  1  0.50759185  0.25200277  0.64206749  1
  H  H14  1  0.93872652  0.25094007  0.20933208  1
  H  H15  1  0.82929637  0.17583125  0.06055514  1
  H  H16  1  0.82916017  0.32336064  0.06223182  1
  H  H17  1  0.10709248  0.18074363  0.00090101  1
  H  H18  1  0.10632787  0.31877386  0.00174003  1
  H  H19  1  0.00742112  0.24801886  0.85834151  1
  H  H20  1  0.56321894  0.75067597  0.70852179  1
  H  H21  1  0.67165189  0.67557537  0.55894995  1
  H  H22  1  0.67191478  0.82308967  0.56081635  1
  H  H23  1  0.39436902  0.81879213  0.50194924  1
  H  H24  1  0.39347138  0.68076248  0.50099239  1
  H  H25  1  0.49240525  0.74800222  0.35794509  1
  H  H26  1  0.06127740  0.74906326  0.79068314  1
  H  H27  1  0.17070893  0.82417015  0.93946141  1
  H  H28  1  0.17084755  0.67664089  0.93777811  1
  H  H29  1  0.89291259  0.81925288  0.99911990  1
  H  H30  1  0.89368235  0.68122281  0.99827651  1
  H  H31  1  0.99258939  0.75197766  0.14167524  1
  Ga  Ga32  1  0.49999998  0.00000671  0.00000690  1
  Ga  Ga33  1  0.99998876  0.50000289  0.49998742  1
  Sb  Sb34  1  0.99999997  0.00000319  0.50001023  1
  Sb  Sb35  1  0.49999831  0.50000597  0.99999435  1
  I  I36  1  0.47730003  0.25290628  0.94662147  1
  I  I37  1  0.18198809  0.01533518  0.18842632  1
  I  I38  1  0.69112319  0.00888646  0.31987708  1
  I  I39  1  0.97663989  0.24704915  0.55398514  1
  I  I40  1  0.30888069  0.99111864  0.68014060  1
  I  I41  1  0.81801864  0.98466617  0.81159087  1
  I  I42  1  0.52270460  0.74710437  0.05338940  1
  I  I43  1  0.68182475  0.48458987  0.31164129  1
  I  I44  1  0.19114722  0.49125010  0.18003033  1
  I  I45  1  0.02335945  0.75295562  0.44603202  1
  I  I46  1  0.31816380  0.51541492  0.68836194  1
  I  I47  1  0.80884820  0.50875504  0.81997182  1
