# generated using pymatgen
data_Cs2SrCI6
_symmetry_space_group_name_H-M   'P 1'
_cell_length_a   8.49377741
_cell_length_b   12.27678119
_cell_length_c   8.71812502
_cell_angle_alpha   93.25936934
_cell_angle_beta   90.00161054
_cell_angle_gamma   89.99948379
_symmetry_Int_Tables_number   1
_chemical_formula_structural   Cs2SrCI6
_chemical_formula_sum   'Cs4 Sr2 C2 I12'
_cell_volume   907.62279258
_cell_formula_units_Z   2
loop_
 _symmetry_equiv_pos_site_id
 _symmetry_equiv_pos_as_xyz
  1  'x, y, z'
loop_
 _atom_site_type_symbol
 _atom_site_label
 _atom_site_symmetry_multiplicity
 _atom_site_fract_x
 _atom_site_fract_y
 _atom_site_fract_z
 _atom_site_occupancy
  Cs  Cs0  1  0.49984140  0.25443036  0.46697712  1
  Cs  Cs1  1  0.99981775  0.24549184  0.03301823  1
  Cs  Cs2  1  0.50005818  0.74901954  0.46708172  1
  Cs  Cs3  1  0.00008886  0.75090070  0.03289832  1
  C  C4  1  0.49999468  0.04124334  0.91733982  1
  C  C5  1  0.00004669  0.45865225  0.58264953  1
  Sr  Sr6  1  0.99997058  0.00232574  0.49079177  1
  Sr  Sr7  1  0.49995971  0.49757794  0.00915422  1
  I  I8  1  0.49985969  0.22753125  0.96703537  1
  I  I9  1  0.26105015  0.01290816  0.24359440  1
  I  I10  1  0.73846784  0.01292728  0.24416918  1
  I  I11  1  0.99993565  0.27241599  0.53295812  1
  I  I12  1  0.28306953  0.00057542  0.76743098  1
  I  I13  1  0.71737894  0.00078913  0.76798130  1
  I  I14  1  0.50017214  0.74540730  0.96226749  1
  I  I15  1  0.76103029  0.48698762  0.25644785  1
  I  I16  1  0.23841551  0.48700641  0.25579569  1
  I  I17  1  0.00013832  0.75451855  0.53763420  1
  I  I18  1  0.21747016  0.49919961  0.73196984  1
  I  I19  1  0.78317931  0.49931588  0.73259367  1
