# generated using pymatgen
data_Cs2ZnCI6
_symmetry_space_group_name_H-M   'P 1'
_cell_length_a   8.29006666
_cell_length_b   11.80487933
_cell_length_c   8.69598090
_cell_angle_alpha   92.31383482
_cell_angle_beta   89.99894661
_cell_angle_gamma   90.00008090
_symmetry_Int_Tables_number   1
_chemical_formula_structural   Cs2ZnCI6
_chemical_formula_sum   'Cs4 Zn2 C2 I12'
_cell_volume   850.32298030
_cell_formula_units_Z   2
loop_
 _symmetry_equiv_pos_site_id
 _symmetry_equiv_pos_as_xyz
  1  'x, y, z'
loop_
 _atom_site_type_symbol
 _atom_site_label
 _atom_site_symmetry_multiplicity
 _atom_site_fract_x
 _atom_site_fract_y
 _atom_site_fract_z
 _atom_site_occupancy
  Cs  Cs0  1  0.49998578  0.25779681  0.49379466  1
  Cs  Cs1  1  0.99997338  0.24212488  0.00620430  1
  Cs  Cs2  1  0.50000579  0.75188812  0.50029356  1
  Cs  Cs3  1  0.00001974  0.74803015  0.99967847  1
  C  C4  1  0.50003777  0.04127362  0.92655626  1
  C  C5  1  0.00002731  0.45865321  0.57342835  1
  Zn  Zn6  1  0.99994482  0.94919436  0.39118843  1
  Zn  Zn7  1  0.49995330  0.55072033  0.10876667  1
  I  I8  1  0.50002701  0.23262345  0.98007307  1
  I  I9  1  0.25992039  0.00724868  0.26280720  1
  I  I10  1  0.73989466  0.00717406  0.26289267  1
  I  I11  1  0.00003993  0.26730271  0.51992830  1
  I  I12  1  0.28077804  0.00730644  0.77055725  1
  I  I13  1  0.71934248  0.00730254  0.77062084  1
  I  I14  1  0.50006958  0.73632723  0.97211332  1
  I  I15  1  0.75986029  0.49269261  0.23727900  1
  I  I16  1  0.23987147  0.49271724  0.23698607  1
  I  I17  1  0.00002827  0.76358427  0.52783597  1
  I  I18  1  0.21936309  0.49264820  0.72930455  1
  I  I19  1  0.78080226  0.49261543  0.72947987  1
