# generated using pymatgen
data_Cs2CaCI6
_symmetry_space_group_name_H-M   'P 1'
_cell_length_a   8.36359390
_cell_length_b   12.10392226
_cell_length_c   8.64743967
_cell_angle_alpha   93.64264623
_cell_angle_beta   89.99680285
_cell_angle_gamma   90.00175418
_symmetry_Int_Tables_number   1
_chemical_formula_structural   Cs2CaCI6
_chemical_formula_sum   'Cs4 Ca2 C2 I12'
_cell_volume   873.63156465
_cell_formula_units_Z   2
loop_
 _symmetry_equiv_pos_site_id
 _symmetry_equiv_pos_as_xyz
  1  'x, y, z'
loop_
 _atom_site_type_symbol
 _atom_site_label
 _atom_site_symmetry_multiplicity
 _atom_site_fract_x
 _atom_site_fract_y
 _atom_site_fract_z
 _atom_site_occupancy
  Cs  Cs0  1  0.49998283  0.25550414  0.47063350  1
  Cs  Cs1  1  0.00000232  0.24441355  0.02929073  1
  Cs  Cs2  1  0.49997508  0.74870521  0.46572644  1
  Cs  Cs3  1  1.00000052  0.75123757  0.03427091  1
  C  C4  1  0.50006996  0.04313463  0.91150857  1
  C  C5  1  0.00003356  0.45679062  0.58847395  1
  Ca  Ca6  1  0.99988451  0.00220288  0.48263084  1
  Ca  Ca7  1  0.49988902  0.49771984  0.01734846  1
  I  I8  1  0.50012831  0.23181059  0.97039591  1
  I  I9  1  0.25878422  0.01134238  0.24884967  1
  I  I10  1  0.74084849  0.01119998  0.24904805  1
  I  I11  1  0.00001289  0.26810825  0.52959261  1
  I  I12  1  0.27914489  0.99929939  0.76370817  1
  I  I13  1  0.72124462  0.99922010  0.76404079  1
  I  I14  1  0.49999265  0.73678796  0.95937210  1
  I  I15  1  0.75878827  0.48860617  0.25109808  1
  I  I16  1  0.24085439  0.48866649  0.25095960  1
  I  I17  1  0.00004308  0.76313870  0.54062900  1
  I  I18  1  0.22118065  0.50065426  0.73598086  1
  I  I19  1  0.77908515  0.50068162  0.73623058  1
