# generated using pymatgen
data_Cs2TlI6N
_symmetry_space_group_name_H-M   'P 1'
_cell_length_a   8.66603617
_cell_length_b   11.67789025
_cell_length_c   8.36886165
_cell_angle_alpha   90.00024893
_cell_angle_beta   90.24297951
_cell_angle_gamma   90.00513272
_symmetry_Int_Tables_number   1
_chemical_formula_structural   Cs2TlI6N
_chemical_formula_sum   'Cs4 Tl2 I12 N2'
_cell_volume   846.92971085
_cell_formula_units_Z   2
loop_
 _symmetry_equiv_pos_site_id
 _symmetry_equiv_pos_as_xyz
  1  'x, y, z'
loop_
 _atom_site_type_symbol
 _atom_site_label
 _atom_site_symmetry_multiplicity
 _atom_site_fract_x
 _atom_site_fract_y
 _atom_site_fract_z
 _atom_site_occupancy
  Cs  Cs0  1  0.54688249  0.25274273  0.49969626  1
  Cs  Cs1  1  0.97668459  0.25815171  0.99991888  1
  Cs  Cs2  1  0.52329826  0.75815878  0.50006122  1
  Cs  Cs3  1  0.95308801  0.75273740  0.00026097  1
  N  N4  1  0.39098500  0.95796693  0.00077815  1
  N  N5  1  0.10903122  0.45795837  0.49921378  1
  Tl  Tl6  1  0.97466521  0.00488825  0.50066789  1
  Tl  Tl7  1  0.52530515  0.50487860  0.99931126  1
  I  I8  1  0.47699967  0.25463168  0.00002176  1
  I  I9  1  0.25937304  0.99983690  0.21093610  1
  I  I10  1  0.73687508  0.00641325  0.23807534  1
  I  I11  1  0.07709035  0.25855366  0.49987648  1
  I  I12  1  0.25906589  0.00026119  0.78945648  1
  I  I13  1  0.73727351  0.00608639  0.76167193  1
  I  I14  1  0.42290516  0.75860412  0.00007029  1
  I  I15  1  0.76314586  0.50643636  0.26188569  1
  I  I16  1  0.24065458  0.49990114  0.28904523  1
  I  I17  1  0.02296208  0.75468277  0.50002284  1
  I  I18  1  0.24096829  0.50026470  0.71054853  1
  I  I19  1  0.76269196  0.50606941  0.73826972  1
