# generated using pymatgen
data_Cs2IrI6N
_symmetry_space_group_name_H-M   'P 1'
_cell_length_a   8.41889800
_cell_length_b   11.15356357
_cell_length_c   8.24250142
_cell_angle_alpha   90.00235696
_cell_angle_beta   98.03969377
_cell_angle_gamma   89.99920848
_symmetry_Int_Tables_number   1
_chemical_formula_structural   Cs2IrI6N
_chemical_formula_sum   'Cs4 Ir2 I12 N2'
_cell_volume   766.36967065
_cell_formula_units_Z   2
loop_
 _symmetry_equiv_pos_site_id
 _symmetry_equiv_pos_as_xyz
  1  'x, y, z'
loop_
 _atom_site_type_symbol
 _atom_site_label
 _atom_site_symmetry_multiplicity
 _atom_site_fract_x
 _atom_site_fract_y
 _atom_site_fract_z
 _atom_site_occupancy
  Cs  Cs0  1  0.52336668  0.26427496  0.47306834  1
  Cs  Cs1  1  0.98179753  0.26605228  0.03111476  1
  Cs  Cs2  1  0.51818555  0.76606076  0.46891834  1
  Cs  Cs3  1  0.97662407  0.76426348  0.02686681  1
  N  N4  1  0.29212899  0.87362874  0.95058790  1
  N  N5  1  0.20785896  0.37358962  0.54940058  1
  Ir  Ir6  1  0.03062000  0.01123306  0.53365259  1
  Ir  Ir7  1  0.46937415  0.51124694  0.96631291  1
  I  I8  1  0.48694768  0.27031002  0.98215112  1
  I  I9  1  0.23396838  0.01516384  0.30387288  1
  I  I10  1  0.78000807  0.02525309  0.28117396  1
  I  I11  1  0.01169807  0.25536404  0.53837293  1
  I  I12  1  0.27918000  0.00377626  0.77109097  1
  I  I13  1  0.80670325  0.01454248  0.74453659  1
  I  I14  1  0.48827932  0.75538460  0.96169442  1
  I  I15  1  0.71998389  0.52528394  0.21879259  1
  I  I16  1  0.26602332  0.51516742  0.19608786  1
  I  I17  1  0.01308327  0.77029554  0.51780552  1
  I  I18  1  0.22082621  0.50377324  0.72886178  1
  I  I19  1  0.69328800  0.51456002  0.75542598  1
