# generated using pymatgen
data_InGaH12C2(I3N)2
_symmetry_space_group_name_H-M   'P 1'
_cell_length_a   8.43960746
_cell_length_b   12.09569873
_cell_length_c   8.32022416
_cell_angle_alpha   91.52153446
_cell_angle_beta   90.00644413
_cell_angle_gamma   89.97913514
_symmetry_Int_Tables_number   1
_chemical_formula_structural   InGaH12C2(I3N)2
_chemical_formula_sum   'In2 Ga2 H24 C4 I12 N4'
_cell_volume   849.05349140
_cell_formula_units_Z   2
loop_
 _symmetry_equiv_pos_site_id
 _symmetry_equiv_pos_as_xyz
  1  'x, y, z'
loop_
 _atom_site_type_symbol
 _atom_site_label
 _atom_site_symmetry_multiplicity
 _atom_site_fract_x
 _atom_site_fract_y
 _atom_site_fract_z
 _atom_site_occupancy
  C  C0  1  0.39792393  0.25060014  0.41546685  1
  C  C1  1  0.89901756  0.24960319  0.08551701  1
  C  C2  1  0.60207414  0.74940394  0.58454570  1
  C  C3  1  0.10098835  0.75039897  0.91449714  1
  N  N4  1  0.53898850  0.25112251  0.52169175  1
  N  N5  1  0.03946114  0.24891078  0.97848824  1
  N  N6  1  0.46100963  0.74888237  0.47832108  1
  N  N7  1  0.96054652  0.75108743  0.02152823  1
  H  H8  1  0.43779689  0.24924432  0.29018141  1
  H  H9  1  0.32787646  0.17674078  0.43862810  1
  H  H10  1  0.32849070  0.32527593  0.44114213  1
  H  H11  1  0.60754532  0.18090771  0.49829971  1
  H  H12  1  0.60875794  0.31988860  0.49932643  1
  H  H13  1  0.50885286  0.25301179  0.64344427  1
  H  H14  1  0.93963934  0.25100529  0.21056837  1
  H  H15  1  0.82940879  0.17496606  0.06037067  1
  H  H16  1  0.82886875  0.32351436  0.06270377  1
  H  H17  1  0.10930922  0.18008893  0.00055207  1
  H  H18  1  0.10817919  0.31907721  0.00146950  1
  H  H19  1  0.00867225  0.24700166  0.85691402  1
  H  H20  1  0.56220167  0.75076009  0.70983128  1
  H  H21  1  0.67150621  0.67472676  0.55887069  1
  H  H22  1  0.67212270  0.82326191  0.56138383  1
  H  H23  1  0.39245340  0.81909672  0.50171358  1
  H  H24  1  0.39123899  0.68011564  0.50068710  1
  H  H25  1  0.49114455  0.74699236  0.35656875  1
  H  H26  1  0.06036466  0.74899861  0.78944655  1
  H  H27  1  0.17059591  0.82503618  0.93964569  1
  H  H28  1  0.17113905  0.67648787  0.93730614  1
  H  H29  1  0.89069536  0.81990808  0.99946771  1
  H  H30  1  0.89183074  0.68091992  0.99854601  1
  H  H31  1  0.99133727  0.75299559  0.14310194  1
  Ga  Ga32  1  0.50000103  0.00000796  0.00000547  1
  Ga  Ga33  1  0.99998749  0.50000393  0.49998936  1
  In  In34  1  0.99999916  0.00000332  0.50000860  1
  In  In35  1  0.49999874  0.50000636  0.99999525  1
  I  I36  1  0.47735002  0.25656258  0.94706757  1
  I  I37  1  0.17723654  0.01485644  0.19148454  1
  I  I38  1  0.69466339  0.00661874  0.32352534  1
  I  I39  1  0.97667394  0.24338800  0.55347371  1
  I  I40  1  0.30533675  0.99338519  0.67649088  1
  I  I41  1  0.82276655  0.98514430  0.80853343  1
  I  I42  1  0.52265405  0.74344549  0.05294418  1
  I  I43  1  0.67705042  0.48510530  0.30859056  1
  I  I44  1  0.19465158  0.49349105  0.17633767  1
  I  I45  1  0.02332531  0.75661630  0.44654340  1
  I  I46  1  0.32294141  0.51489850  0.69141322  1
  I  I47  1  0.80534933  0.50651312  0.82366770  1
