# generated using pymatgen
data_Cs2RhI6N
_symmetry_space_group_name_H-M   'P 1'
_cell_length_a   8.40102478
_cell_length_b   11.14054309
_cell_length_c   8.20953193
_cell_angle_alpha   89.99910791
_cell_angle_beta   97.90585659
_cell_angle_gamma   90.00018600
_symmetry_Int_Tables_number   1
_chemical_formula_structural   Cs2RhI6N
_chemical_formula_sum   'Cs4 Rh2 I12 N2'
_cell_volume   761.04351937
_cell_formula_units_Z   2
loop_
 _symmetry_equiv_pos_site_id
 _symmetry_equiv_pos_as_xyz
  1  'x, y, z'
loop_
 _atom_site_type_symbol
 _atom_site_label
 _atom_site_symmetry_multiplicity
 _atom_site_fract_x
 _atom_site_fract_y
 _atom_site_fract_z
 _atom_site_occupancy
  Cs  Cs0  1  0.52371022  0.26466718  0.47319595  1
  Cs  Cs1  1  0.98174416  0.26517247  0.02792898  1
  Cs  Cs2  1  0.51822149  0.76514926  0.47206996  1
  Cs  Cs3  1  0.97633072  0.76467650  0.02676752  1
  N  N4  1  0.29440196  0.87829513  0.95347453  1
  N  N5  1  0.20561564  0.37827637  0.54647965  1
  Rh  Rh6  1  0.03036329  0.00945538  0.52979278  1
  Rh  Rh7  1  0.46962164  0.50946280  0.97019338  1
  I  I8  1  0.48527058  0.26822574  0.98112643  1
  I  I9  1  0.23682105  0.01409669  0.30045476  1
  I  I10  1  0.77972706  0.02439758  0.27675175  1
  I  I11  1  0.01275175  0.25668662  0.53305878  1
  I  I12  1  0.28159509  0.00337906  0.76755296  1
  I  I13  1  0.80548065  0.01521738  0.74130984  1
  I  I14  1  0.48725481  0.75670546  0.96691407  1
  I  I15  1  0.72025636  0.52442844  0.22324227  1
  I  I16  1  0.26315036  0.51410620  0.19953211  1
  I  I17  1  0.01467955  0.76822866  0.51887902  1
  I  I18  1  0.21841773  0.50338967  0.73238034  1
  I  I19  1  0.69453125  0.51520772  0.75868370  1
