# generated using pymatgen
data_Cs2ZrI6N
_symmetry_space_group_name_H-M   'P 1'
_cell_length_a   8.39643816
_cell_length_b   11.54850878
_cell_length_c   8.39638635
_cell_angle_alpha   89.61551491
_cell_angle_beta   92.39624568
_cell_angle_gamma   89.61962820
_symmetry_Int_Tables_number   1
_chemical_formula_structural   Cs2ZrI6N
_chemical_formula_sum   'Cs4 Zr2 I12 N2'
_cell_volume   813.41709902
_cell_formula_units_Z   2
loop_
 _symmetry_equiv_pos_site_id
 _symmetry_equiv_pos_as_xyz
  1  'x, y, z'
loop_
 _atom_site_type_symbol
 _atom_site_label
 _atom_site_symmetry_multiplicity
 _atom_site_fract_x
 _atom_site_fract_y
 _atom_site_fract_z
 _atom_site_occupancy
  Cs  Cs0  1  0.48513930  0.26550666  0.50639866  1
  Cs  Cs1  1  0.00629883  0.26547060  0.98515662  1
  Cs  Cs2  1  0.51013123  0.78362695  0.49574689  1
  Cs  Cs3  1  0.99577757  0.78360103  0.01009356  1
  N  N4  1  0.31377157  0.81504852  0.81375378  1
  N  N5  1  0.12210391  0.17473032  0.62209283  1
  Zr  Zr6  1  0.01536964  0.03922774  0.51531697  1
  Zr  Zr7  1  0.49474747  0.51307064  0.99474673  1
  I  I8  1  0.50469554  0.27258286  0.00459174  1
  I  I9  1  0.24849863  0.03113214  0.26434377  1
  I  I10  1  0.76290069  0.03357026  0.26277466  1
  I  I11  1  0.99112049  0.30070942  0.49127727  1
  I  I12  1  0.28027731  0.99534901  0.78033462  1
  I  I13  1  0.76431488  0.03100511  0.74834739  1
  I  I14  1  0.49263211  0.78019690  0.99271811  1
  I  I15  1  0.74057794  0.54371327  0.24058683  1
  I  I16  1  0.26158850  0.52705452  0.23559240  1
  I  I17  1  0.01939907  0.78428869  0.51923856  1
  I  I18  1  0.25501776  0.53210743  0.75506680  1
  I  I19  1  0.73558292  0.52723227  0.76161062  1
