# generated using pymatgen
data_Cs2CuI6N
_symmetry_space_group_name_H-M   'P 1'
_cell_length_a   8.54368378
_cell_length_b   10.57508895
_cell_length_c   8.90008736
_cell_angle_alpha   86.29372137
_cell_angle_beta   89.99910971
_cell_angle_gamma   89.99992446
_symmetry_Int_Tables_number   1
_chemical_formula_structural   Cs2CuI6N
_chemical_formula_sum   'Cs4 Cu2 I12 N2'
_cell_volume   802.44302116
_cell_formula_units_Z   2
loop_
 _symmetry_equiv_pos_site_id
 _symmetry_equiv_pos_as_xyz
  1  'x, y, z'
loop_
 _atom_site_type_symbol
 _atom_site_label
 _atom_site_symmetry_multiplicity
 _atom_site_fract_x
 _atom_site_fract_y
 _atom_site_fract_z
 _atom_site_occupancy
  Cs  Cs0  1  0.50000762  0.25746379  0.51377405  1
  Cs  Cs1  1  0.99998259  0.24246823  0.98622321  1
  Cs  Cs2  1  0.49999565  0.75820117  0.53715446  1
  Cs  Cs3  1  0.00000084  0.74171761  0.96281885  1
  N  N4  1  0.49998947  0.04961730  0.08792501  1
  N  N5  1  0.00000203  0.45031145  0.41206434  1
  Cu  Cu6  1  0.99997733  0.99674483  0.62285036  1
  Cu  Cu7  1  0.50002515  0.50316698  0.87711906  1
  I  I8  1  0.49996365  0.25592560  0.02804290  1
  I  I9  1  0.29538264  0.99227010  0.22170338  1
  I  I10  1  0.70459458  0.99228543  0.22170631  1
  I  I11  1  0.00002070  0.24399787  0.47192560  1
  I  I12  1  0.26097136  0.00424806  0.75566856  1
  I  I13  1  0.73899261  0.00424161  0.75569010  1
  I  I14  1  0.50000995  0.64380315  0.10086805  1
  I  I15  1  0.79540311  0.50764189  0.27826706  1
  I  I16  1  0.20460387  0.50765478  0.27827082  1
  I  I17  1  0.99998340  0.85612663  0.39909545  1
  I  I18  1  0.23902276  0.49566010  0.74432320  1
  I  I19  1  0.76101604  0.49567775  0.74429805  1
