# generated using pymatgen
data_GaH12RhC2(I3N)2
_symmetry_space_group_name_H-M   'P 1'
_cell_length_a   8.25277776
_cell_length_b   11.59533848
_cell_length_c   8.13010173
_cell_angle_alpha   92.05003706
_cell_angle_beta   89.99337902
_cell_angle_gamma   89.98448422
_symmetry_Int_Tables_number   1
_chemical_formula_structural   GaH12RhC2(I3N)2
_chemical_formula_sum   'Ga2 H24 Rh2 C4 I12 N4'
_cell_volume   777.50195564
_cell_formula_units_Z   2
loop_
 _symmetry_equiv_pos_site_id
 _symmetry_equiv_pos_as_xyz
  1  'x, y, z'
loop_
 _atom_site_type_symbol
 _atom_site_label
 _atom_site_symmetry_multiplicity
 _atom_site_fract_x
 _atom_site_fract_y
 _atom_site_fract_z
 _atom_site_occupancy
  C  C0  1  0.41231562  0.25272993  0.42038849  1
  C  C1  1  0.91310233  0.24733397  0.07975711  1
  C  C2  1  0.58768262  0.74727525  0.57962329  1
  C  C3  1  0.08690137  0.75267178  0.92025537  1
  N  N4  1  0.55678476  0.25399292  0.52806684  1
  N  N5  1  0.05721778  0.24594544  0.97155568  1
  N  N6  1  0.44321261  0.74601029  0.47194620  1
  N  N7  1  0.94278759  0.75405529  0.02845899  1
  H  H8  1  0.45223559  0.24790396  0.29197924  1
  H  H9  1  0.33882893  0.17747924  0.44742038  1
  H  H10  1  0.34352539  0.33205642  0.44437133  1
  H  H11  1  0.62687555  0.18079468  0.50403580  1
  H  H12  1  0.62845361  0.32512339  0.50538837  1
  H  H13  1  0.52631644  0.25693615  0.65299805  1
  H  H14  1  0.95345436  0.25222718  0.20801162  1
  H  H15  1  0.84425238  0.16800828  0.05614295  1
  H  H16  1  0.83950661  0.32258829  0.05290464  1
  H  H17  1  0.12894267  0.17478732  0.99398466  1
  H  H18  1  0.12739626  0.31911250  0.99530774  1
  H  H19  1  0.02634552  0.24300616  0.84672802  1
  H  H20  1  0.54776374  0.75210350  0.70803282  1
  H  H21  1  0.65647261  0.66794819  0.55564314  1
  H  H22  1  0.66116916  0.82252516  0.55258766  1
  H  H23  1  0.37312169  0.81920861  0.49597545  1
  H  H24  1  0.37154422  0.67487992  0.49462763  1
  H  H25  1  0.47368003  0.74306534  0.34701478  1
  H  H26  1  0.04654744  0.74777995  0.79200141  1
  H  H27  1  0.15574832  0.83199853  0.94387154  1
  H  H28  1  0.16050063  0.67741833  0.94710362  1
  H  H29  1  0.87105877  0.82521196  0.00603382  1
  H  H30  1  0.87261226  0.68088684  0.00470530  1
  H  H31  1  0.97366146  0.75699343  0.15328624  1
  Ga  Ga32  1  0.50000563  0.99999954  0.00000034  1
  Ga  Ga33  1  0.99999055  0.50000062  0.49999577  1
  Rh  Rh34  1  0.99999879  0.00000152  0.50000531  1
  Rh  Rh35  1  0.50000231  0.50000114  0.00000493  1
  I  I36  1  0.48659484  0.26566878  0.95642247  1
  I  I37  1  0.18273319  0.00826725  0.21834658  1
  I  I38  1  0.72121214  0.00196932  0.31648875  1
  I  I39  1  0.98600043  0.23432263  0.54357895  1
  I  I40  1  0.27878582  0.99803507  0.68352299  1
  I  I41  1  0.81726688  0.99173498  0.78166791  1
  I  I42  1  0.51340988  0.73433343  0.04359072  1
  I  I43  1  0.68261345  0.49168150  0.28166907  1
  I  I44  1  0.22109548  0.49796584  0.18337840  1
  I  I45  1  0.01399860  0.76568006  0.45643540  1
  I  I46  1  0.31738846  0.50832044  0.71834688  1
  I  I47  1  0.77890896  0.50203795  0.81663395  1
