# generated using pymatgen
data_Cs2ScI6N
_symmetry_space_group_name_H-M   'P 1'
_cell_length_a   8.33274847
_cell_length_b   12.27313067
_cell_length_c   8.15055077
_cell_angle_alpha   89.91353783
_cell_angle_beta   104.16745203
_cell_angle_gamma   90.07257285
_symmetry_Int_Tables_number   1
_chemical_formula_structural   Cs2ScI6N
_chemical_formula_sum   'Cs4 Sc2 I12 N2'
_cell_volume   808.19394385
_cell_formula_units_Z   2
loop_
 _symmetry_equiv_pos_site_id
 _symmetry_equiv_pos_as_xyz
  1  'x, y, z'
loop_
 _atom_site_type_symbol
 _atom_site_label
 _atom_site_symmetry_multiplicity
 _atom_site_fract_x
 _atom_site_fract_y
 _atom_site_fract_z
 _atom_site_occupancy
  Cs  Cs0  1  0.53287324  0.28460000  0.47558765  1
  Cs  Cs1  1  0.99120013  0.28349865  0.10912155  1
  Cs  Cs2  1  0.50785406  0.78328614  0.39052619  1
  Cs  Cs3  1  0.96753538  0.78478618  0.02542547  1
  N  N4  1  0.31615600  0.83388085  0.97602398  1
  N  N5  1  0.18440088  0.33403860  0.52367526  1
  Sc  Sc6  1  0.00649549  0.00029016  0.53444928  1
  Sc  Sc7  1  0.49349520  0.50047262  0.96546961  1
  I  I8  1  0.48348261  0.27539490  0.96558876  1
  I  I9  1  0.24455824  0.04064939  0.34735869  1
  I  I10  1  0.74340002  0.02320443  0.24469031  1
  I  I11  1  0.03091400  0.23604586  0.63167382  1
  I  I12  1  0.29252373  0.98636324  0.86116834  1
  I  I13  1  0.78260753  0.03516643  0.74644696  1
  I  I14  1  0.46964998  0.73634414  0.86814154  1
  I  I15  1  0.75637076  0.52335134  0.25543880  1
  I  I16  1  0.25497363  0.54054385  0.15169277  1
  I  I17  1  0.01613293  0.77524663  0.53536965  1
  I  I18  1  0.20774652  0.48640850  0.63829610  1
  I  I19  1  0.71757503  0.53565242  0.75364410  1
