# generated using pymatgen
data_Cs2BaMgI6
_symmetry_space_group_name_H-M   'P 1'
_cell_length_a   8.82869027
_cell_length_b   12.48373181
_cell_length_c   8.82872167
_cell_angle_alpha   89.99356854
_cell_angle_beta   89.99998069
_cell_angle_gamma   89.99990019
_symmetry_Int_Tables_number   1
_chemical_formula_structural   Cs2BaMgI6
_chemical_formula_sum   'Cs4 Ba2 Mg2 I12'
_cell_volume   973.05756717
_cell_formula_units_Z   2
loop_
 _symmetry_equiv_pos_site_id
 _symmetry_equiv_pos_as_xyz
  1  'x, y, z'
loop_
 _atom_site_type_symbol
 _atom_site_label
 _atom_site_symmetry_multiplicity
 _atom_site_fract_x
 _atom_site_fract_y
 _atom_site_fract_z
 _atom_site_occupancy
  Cs  Cs0  1  0.49975239  0.24970782  0.49975693  1
  Cs  Cs1  1  0.99974610  0.25021832  0.00023036  1
  Cs  Cs2  1  0.50024254  0.74970656  0.50024631  1
  Cs  Cs3  1  0.00024935  0.75021745  0.99973080  1
  Mg  Mg4  1  0.49999897  0.99995474  0.99976593  1
  Mg  Mg5  1  0.99999569  0.49996727  0.50021210  1
  Ba  Ba6  1  0.99999858  0.99996814  0.49978015  1
  Ba  Ba7  1  0.49999511  0.49995706  0.00019849  1
  I  I8  1  0.49975714  0.23301139  0.99908510  1
  I  I9  1  0.26654068  0.00031525  0.23254084  1
  I  I10  1  0.73253964  0.00027887  0.23345646  1
  I  I11  1  0.99977290  0.26691203  0.50089403  1
  I  I12  1  0.26728472  0.99956576  0.76638010  1
  I  I13  1  0.73362138  0.99967582  0.76729034  1
  I  I14  1  0.50023733  0.76690372  0.00080268  1
  I  I15  1  0.76653329  0.49960227  0.26744258  1
  I  I16  1  0.23253218  0.49964702  0.26651596  1
  I  I17  1  0.00022109  0.73301940  0.49916775  1
  I  I18  1  0.23362832  0.50024905  0.73267910  1
  I  I19  1  0.76729799  0.50034638  0.73361279  1
