# generated using pymatgen
data_Cs2MgSnI6
_symmetry_space_group_name_H-M   'P 1'
_cell_length_a   8.55421838
_cell_length_b   12.09675756
_cell_length_c   8.55421460
_cell_angle_alpha   89.99593835
_cell_angle_beta   90.00000420
_cell_angle_gamma   89.99993315
_symmetry_Int_Tables_number   1
_chemical_formula_structural   Cs2MgSnI6
_chemical_formula_sum   'Cs4 Mg2 Sn2 I12'
_cell_volume   885.17563223
_cell_formula_units_Z   2
loop_
 _symmetry_equiv_pos_site_id
 _symmetry_equiv_pos_as_xyz
  1  'x, y, z'
loop_
 _atom_site_type_symbol
 _atom_site_label
 _atom_site_symmetry_multiplicity
 _atom_site_fract_x
 _atom_site_fract_y
 _atom_site_fract_z
 _atom_site_occupancy
  Cs  Cs0  1  0.49972643  0.24966003  0.49972257  1
  Cs  Cs1  1  0.99971986  0.25025967  0.00026468  1
  Cs  Cs2  1  0.50026809  0.74965868  0.50027212  1
  Cs  Cs3  1  0.00027568  0.75025840  0.99970400  1
  Mg  Mg4  1  0.49999915  0.99995386  0.99971605  1
  Mg  Mg5  1  0.99999501  0.49996899  0.50026239  1
  Sn  Sn6  1  0.99999860  0.99996881  0.49973331  1
  Sn  Sn7  1  0.49999454  0.49995571  0.00024466  1
  I  I8  1  0.49974491  0.24187933  0.99914942  1
  I  I9  1  0.25768039  0.00030187  0.24146653  1
  I  I10  1  0.74144885  0.00023767  0.24233393  1
  I  I11  1  0.99976054  0.25804597  0.50083099  1
  I  I12  1  0.25836462  0.99960906  0.75752596  1
  I  I13  1  0.74249260  0.99969617  0.75838648  1
  I  I14  1  0.50024922  0.75803860  0.00080384  1
  I  I15  1  0.75767384  0.49961888  0.25851581  1
  I  I16  1  0.24144211  0.49969034  0.25763880  1
  I  I17  1  0.00023402  0.74188637  0.49916644  1
  I  I18  1  0.24249855  0.50023035  0.74158369  1
  I  I19  1  0.75837837  0.50030556  0.74246715  1
