# generated using pymatgen
data_YGaH12C2(I3N)2
_symmetry_space_group_name_H-M   'P 1'
_cell_length_a   8.53551738
_cell_length_b   12.33446085
_cell_length_c   8.40541881
_cell_angle_alpha   91.72086593
_cell_angle_beta   90.00724697
_cell_angle_gamma   89.97734725
_symmetry_Int_Tables_number   1
_chemical_formula_structural   YGaH12C2(I3N)2
_chemical_formula_sum   'Y2 Ga2 H24 C4 I12 N4'
_cell_volume   884.53175072
_cell_formula_units_Z   2
loop_
 _symmetry_equiv_pos_site_id
 _symmetry_equiv_pos_as_xyz
  1  'x, y, z'
loop_
 _atom_site_type_symbol
 _atom_site_label
 _atom_site_symmetry_multiplicity
 _atom_site_fract_x
 _atom_site_fract_y
 _atom_site_fract_z
 _atom_site_occupancy
  C  C0  1  0.39736267  0.25041580  0.41555978  1
  C  C1  1  0.89851857  0.24983174  0.08552694  1
  C  C2  1  0.60263523  0.74958789  0.58445237  1
  C  C3  1  0.10148734  0.75017004  0.91448695  1
  N  N4  1  0.53724831  0.25093389  0.52063733  1
  N  N5  1  0.03775603  0.24912092  0.97960454  1
  N  N6  1  0.46274903  0.74907020  0.47937622  1
  N  N7  1  0.96225210  0.75087696  0.02041232  1
  H  H8  1  0.43661029  0.24915507  0.29149029  1
  H  H9  1  0.32819924  0.17793441  0.43823946  1
  H  H10  1  0.32864835  0.32375069  0.44136496  1
  H  H11  1  0.60501333  0.18203222  0.49711912  1
  H  H12  1  0.60596106  0.31856343  0.49896576  1
  H  H13  1  0.50752998  0.25263680  0.64116391  1
  H  H14  1  0.93854545  0.25114032  0.20934083  1
  H  H15  1  0.82960935  0.17653682  0.06027387  1
  H  H16  1  0.82925329  0.32237035  0.06319078  1
  H  H17  1  0.10653141  0.18142094  0.00096149  1
  H  H18  1  0.10571113  0.31795846  0.00269897  1
  H  H19  1  0.00736600  0.24740325  0.85926320  1
  H  H20  1  0.56338859  0.75084964  0.70852237  1
  H  H21  1  0.67134844  0.67625251  0.55864781  1
  H  H22  1  0.67179969  0.82206881  0.56177175  1
  H  H23  1  0.39498417  0.81797168  0.50289509  1
  H  H24  1  0.39403641  0.68144045  0.50104823  1
  H  H25  1  0.49246648  0.74736746  0.35884930  1
  H  H26  1  0.06145827  0.74886381  0.79067412  1
  H  H27  1  0.17039609  0.82346482  0.93974274  1
  H  H28  1  0.17075399  0.67763135  0.93681816  1
  H  H29  1  0.89347370  0.81857603  0.99905910  1
  H  H30  1  0.89429880  0.68203860  0.99731653  1
  H  H31  1  0.99264424  0.75259331  0.14075293  1
  Ga  Ga32  1  0.50000321  0.00000734  0.00000785  1
  Ga  Ga33  1  0.99998988  0.50000168  0.49999234  1
  Y  Y34  1  0.00000126  0.00000240  0.50000920  1
  Y  Y35  1  0.49999778  0.50000639  0.99999721  1
  I  I36  1  0.47675096  0.25675076  0.94214825  1
  I  I37  1  0.17129797  0.01880563  0.18668355  1
  I  I38  1  0.68893879  0.00884445  0.32974008  1
  I  I39  1  0.97610665  0.24322207  0.55837012  1
  I  I40  1  0.31106457  0.99116081  0.67027778  1
  I  I41  1  0.82870769  0.98119479  0.81333514  1
  I  I42  1  0.52325189  0.74325980  0.05786191  1
  I  I43  1  0.67116133  0.48111049  0.31340496  1
  I  I44  1  0.18895247  0.49129962  0.17016715  1
  I  I45  1  0.02389294  0.75678219  0.44164713  1
  I  I46  1  0.32882581  0.51889369  0.68659512  1
  I  I47  1  0.81104351  0.50870752  0.82983159  1
