# generated using pymatgen
data_Cs2MgSiI6
_symmetry_space_group_name_H-M   'P 1'
_cell_length_a   8.32229101
_cell_length_b   11.76705179
_cell_length_c   8.32230738
_cell_angle_alpha   90.00087673
_cell_angle_beta   89.99999896
_cell_angle_gamma   90.00000335
_symmetry_Int_Tables_number   1
_chemical_formula_structural   Cs2MgSiI6
_chemical_formula_sum   'Cs4 Mg2 Si2 I12'
_cell_volume   814.99381883
_cell_formula_units_Z   2
loop_
 _symmetry_equiv_pos_site_id
 _symmetry_equiv_pos_as_xyz
  1  'x, y, z'
loop_
 _atom_site_type_symbol
 _atom_site_label
 _atom_site_symmetry_multiplicity
 _atom_site_fract_x
 _atom_site_fract_y
 _atom_site_fract_z
 _atom_site_occupancy
  Cs  Cs0  1  0.49972089  0.24965067  0.49971484  1
  Cs  Cs1  1  0.99971421  0.25026776  0.00027209  1
  Cs  Cs2  1  0.50027367  0.74964937  0.50027620  1
  Cs  Cs3  1  0.00028126  0.75026647  0.99970008  1
  Mg  Mg4  1  0.49999941  0.99995324  0.99970098  1
  Mg  Mg5  1  0.99999499  0.49996929  0.50027773  1
  Si  Si6  1  0.99999885  0.99996905  0.49971071  1
  Si  Si7  1  0.49999480  0.49995319  0.00026811  1
  I  I8  1  0.49974458  0.25012511  0.99917023  1
  I  I9  1  0.24946151  0.00029672  0.24969641  1
  I  I10  1  0.74968108  0.00022644  0.25054954  1
  I  I11  1  0.99976038  0.24980178  0.50081013  1
  I  I12  1  0.25016184  0.99962337  0.74933382  1
  I  I13  1  0.75068156  0.99970069  0.75018092  1
  I  I14  1  0.50024921  0.74979664  0.00081484  1
  I  I15  1  0.74945516  0.49962470  0.25028593  1
  I  I16  1  0.24967489  0.49970197  0.24942299  1
  I  I17  1  0.00023431  0.75012995  0.49915521  1
  I  I18  1  0.25068737  0.50022600  0.74978934  1
  I  I19  1  0.75017539  0.50029191  0.75065871  1
