# generated using pymatgen
data_Cs2AlTlI6
_symmetry_space_group_name_H-M   'P 1'
_cell_length_a   8.61701566
_cell_length_b   12.18661926
_cell_length_c   8.61698074
_cell_angle_alpha   89.98087360
_cell_angle_beta   89.99997107
_cell_angle_gamma   89.99976352
_symmetry_Int_Tables_number   1
_chemical_formula_structural   Cs2AlTlI6
_chemical_formula_sum   'Cs4 Al2 Tl2 I12'
_cell_volume   904.88882159
_cell_formula_units_Z   2
loop_
 _symmetry_equiv_pos_site_id
 _symmetry_equiv_pos_as_xyz
  1  'x, y, z'
loop_
 _atom_site_type_symbol
 _atom_site_label
 _atom_site_symmetry_multiplicity
 _atom_site_fract_x
 _atom_site_fract_y
 _atom_site_fract_z
 _atom_site_occupancy
  Cs  Cs0  1  0.49975197  0.24973889  0.49974194  1
  Cs  Cs1  1  0.99974628  0.25018695  0.00024377  1
  Cs  Cs2  1  0.50024234  0.74973827  0.50022286  1
  Cs  Cs3  1  0.00024921  0.75018576  0.99975315  1
  Al  Al4  1  0.49999854  0.99995586  0.99982052  1
  Al  Al5  1  0.99999657  0.49996518  0.50015785  1
  Tl  Tl6  1  0.99999874  0.99996829  0.49974168  1
  Tl  Tl7  1  0.49999464  0.49995583  0.00023644  1
  I  I8  1  0.49979559  0.22845877  0.99912071  1
  I  I9  1  0.27112242  0.00025546  0.22801112  1
  I  I10  1  0.72803850  0.00027648  0.22884510  1
  I  I11  1  0.99980935  0.27146357  0.50085862  1
  I  I12  1  0.27185267  0.99958636  0.77099709  1
  I  I13  1  0.72897293  0.99971719  0.77182736  1
  I  I14  1  0.50019992  0.77145701  0.00070874  1
  I  I15  1  0.77111529  0.49966241  0.27197354  1
  I  I16  1  0.22803219  0.49964945  0.27112740  1
  I  I17  1  0.00018439  0.72846511  0.49926475  1
  I  I18  1  0.22897999  0.50020898  0.72814312  1
  I  I19  1  0.77186384  0.50032852  0.72899304  1
