# generated using pymatgen
data_Cs2YAlI6
_symmetry_space_group_name_H-M   'P 1'
_cell_length_a   8.70392856
_cell_length_b   12.31357202
_cell_length_c   8.70391804
_cell_angle_alpha   90.01174454
_cell_angle_beta   90.00003360
_cell_angle_gamma   90.00015167
_symmetry_Int_Tables_number   1
_chemical_formula_structural   Cs2YAlI6
_chemical_formula_sum   'Cs4 Y2 Al2 I12'
_cell_volume   932.85502750
_cell_formula_units_Z   2
loop_
 _symmetry_equiv_pos_site_id
 _symmetry_equiv_pos_as_xyz
  1  'x, y, z'
loop_
 _atom_site_type_symbol
 _atom_site_label
 _atom_site_symmetry_multiplicity
 _atom_site_fract_x
 _atom_site_fract_y
 _atom_site_fract_z
 _atom_site_occupancy
  Cs  Cs0  1  0.49972207  0.24969251  0.49971826  1
  Cs  Cs1  1  0.99971557  0.25023198  0.00026804  1
  Cs  Cs2  1  0.50027217  0.74969138  0.50027794  1
  Cs  Cs3  1  0.00027968  0.75023090  0.99969784  1
  Al  Al4  1  0.49999951  0.99995363  0.99971469  1
  Al  Al5  1  0.99999505  0.49996847  0.50026351  1
  Y  Y6  1  0.99999782  0.99996757  0.49977925  1
  Y  Y7  1  0.49999473  0.49995700  0.00019839  1
  I  I8  1  0.49975531  0.25450769  0.99919463  1
  I  I9  1  0.24512698  0.00032194  0.25401816  1
  I  I10  1  0.75400823  0.00022798  0.25487946  1
  I  I11  1  0.99977110  0.24541605  0.50078650  1
  I  I12  1  0.24579863  0.99961858  0.74495613  1
  I  I13  1  0.75505348  0.99967602  0.74581189  1
  I  I14  1  0.50023819  0.74540700  0.00082564  1
  I  I15  1  0.74512027  0.49959734  0.24596463  1
  I  I16  1  0.25400149  0.49969883  0.24509384  1
  I  I17  1  0.00022388  0.75451648  0.49914489  1
  I  I18  1  0.25505944  0.50024886  0.75415839  1
  I  I19  1  0.74581175  0.50029411  0.75503674  1
