# generated using pymatgen
data_Cs2AlGaI6
_symmetry_space_group_name_H-M   'P 1'
_cell_length_a   8.41564970
_cell_length_b   11.90033855
_cell_length_c   8.41565575
_cell_angle_alpha   89.98755028
_cell_angle_beta   90.00001175
_cell_angle_gamma   89.99983240
_symmetry_Int_Tables_number   1
_chemical_formula_structural   Cs2AlGaI6
_chemical_formula_sum   'Cs4 Al2 Ga2 I12'
_cell_volume   842.82016515
_cell_formula_units_Z   2
loop_
 _symmetry_equiv_pos_site_id
 _symmetry_equiv_pos_as_xyz
  1  'x, y, z'
loop_
 _atom_site_type_symbol
 _atom_site_label
 _atom_site_symmetry_multiplicity
 _atom_site_fract_x
 _atom_site_fract_y
 _atom_site_fract_z
 _atom_site_occupancy
  Cs  Cs0  1  0.49977654  0.24972950  0.49977129  1
  Cs  Cs1  1  0.99977160  0.25019143  0.00021489  1
  Cs  Cs2  1  0.50021792  0.74972897  0.50019919  1
  Cs  Cs3  1  0.00022392  0.75019029  0.99977836  1
  Al  Al4  1  0.49999876  0.99995591  0.99980044  1
  Al  Al5  1  0.99999638  0.49996580  0.50017788  1
  Ga  Ga6  1  0.99999893  0.99996867  0.49969396  1
  Ga  Ga7  1  0.49999408  0.49995342  0.00028444  1
  I  I8  1  0.49980662  0.23559087  0.99919098  1
  I  I9  1  0.26402403  0.00023953  0.23516910  1
  I  I10  1  0.73519241  0.00024895  0.23594684  1
  I  I11  1  0.99981985  0.26433235  0.50078801  1
  I  I12  1  0.26473579  0.99962387  0.76393862  1
  I  I13  1  0.73603421  0.99973030  0.76471410  1
  I  I14  1  0.50018805  0.76432808  0.00068638  1
  I  I15  1  0.76401762  0.49968085  0.26481536  1
  I  I16  1  0.23518699  0.49967904  0.26402549  1
  I  I17  1  0.00017383  0.73559486  0.49928665  1
  I  I18  1  0.23604127  0.50019783  0.73525702  1
  I  I19  1  0.76474653  0.50029381  0.73604984  1
