# generated using pymatgen
data_Cs2SiPbI6
_symmetry_space_group_name_H-M   'P 1'
_cell_length_a   8.59117830
_cell_length_b   12.14957120
_cell_length_c   8.59117897
_cell_angle_alpha   89.99486093
_cell_angle_beta   90.00001184
_cell_angle_gamma   89.99991939
_symmetry_Int_Tables_number   1
_chemical_formula_structural   Cs2SiPbI6
_chemical_formula_sum   'Cs4 Si2 Pb2 I12'
_cell_volume   896.73980323
_cell_formula_units_Z   2
loop_
 _symmetry_equiv_pos_site_id
 _symmetry_equiv_pos_as_xyz
  1  'x, y, z'
loop_
 _atom_site_type_symbol
 _atom_site_label
 _atom_site_symmetry_multiplicity
 _atom_site_fract_x
 _atom_site_fract_y
 _atom_site_fract_z
 _atom_site_occupancy
  Cs  Cs0  1  0.49971109  0.24966872  0.49970317  1
  Cs  Cs1  1  0.99970431  0.25025228  0.00028333  1
  Cs  Cs2  1  0.50028314  0.74966749  0.50028471  1
  Cs  Cs3  1  0.00029114  0.75025093  0.99969054  1
  Si  Si4  1  0.49999879  0.99995276  0.99972364  1
  Si  Si5  1  0.99999524  0.49996783  0.50025552  1
  Pb  Pb6  1  0.99999845  0.99996848  0.49972668  1
  Pb  Pb7  1  0.49999434  0.49995505  0.00025179  1
  I  I8  1  0.49974507  0.23939276  0.99914558  1
  I  I9  1  0.26019575  0.00029780  0.23895635  1
  I  I10  1  0.73894162  0.00023621  0.23981633  1
  I  I11  1  0.99976044  0.26053393  0.50083487  1
  I  I12  1  0.26087851  0.99960945  0.76004503  1
  I  I13  1  0.73997118  0.99969876  0.76089749  1
  I  I14  1  0.50024919  0.76052696  0.00079001  1
  I  I15  1  0.76018909  0.49962239  0.26102580  1
  I  I16  1  0.23893506  0.49969121  0.26015675  1
  I  I17  1  0.00023398  0.73939950  0.49918051  1
  I  I18  1  0.23997681  0.50022715  0.73907269  1
  I  I19  1  0.76089218  0.50030465  0.73994803  1
