# generated using pymatgen
data_Cs2SrSiI6
_symmetry_space_group_name_H-M   'P 1'
_cell_length_a   8.66902468
_cell_length_b   12.25984401
_cell_length_c   8.66901997
_cell_angle_alpha   89.99618951
_cell_angle_beta   90.00000554
_cell_angle_gamma   89.99994067
_symmetry_Int_Tables_number   1
_chemical_formula_structural   Cs2SrSiI6
_chemical_formula_sum   'Cs4 Sr2 Si2 I12'
_cell_volume   921.35115767
_cell_formula_units_Z   2
loop_
 _symmetry_equiv_pos_site_id
 _symmetry_equiv_pos_as_xyz
  1  'x, y, z'
loop_
 _atom_site_type_symbol
 _atom_site_label
 _atom_site_symmetry_multiplicity
 _atom_site_fract_x
 _atom_site_fract_y
 _atom_site_fract_z
 _atom_site_occupancy
  Cs  Cs0  1  0.49973462  0.24971781  0.49973471  1
  Cs  Cs1  1  0.99972848  0.25020840  0.00025128  1
  Cs  Cs2  1  0.50025976  0.74971678  0.50025961  1
  Cs  Cs3  1  0.00026677  0.75020739  0.99971634  1
  Si  Si4  1  0.49999879  0.99995566  0.99977395  1
  Si  Si5  1  0.99999580  0.49996702  0.50020420  1
  Sr  Sr6  1  0.99999825  0.99996750  0.49976609  1
  Sr  Sr7  1  0.49999489  0.49995638  0.00021188  1
  I  I8  1  0.49975933  0.23877402  0.99913077  1
  I  I9  1  0.26083174  0.00030951  0.23828502  1
  I  I10  1  0.73828376  0.00026172  0.23916560  1
  I  I11  1  0.99977459  0.26114908  0.50084954  1
  I  I12  1  0.26153914  0.99958548  0.76066893  1
  I  I13  1  0.73933250  0.99968111  0.76154438  1
  I  I14  1  0.50023499  0.76114120  0.00078448  1
  I  I15  1  0.76082464  0.49960842  0.26169831  1
  I  I16  1  0.23827683  0.49966436  0.26080726  1
  I  I17  1  0.00021960  0.73878170  0.49918697  1
  I  I18  1  0.23933871  0.50024382  0.73842574  1
  I  I19  1  0.76155218  0.50032694  0.73932374  1
