# generated using pymatgen
data_GaAsH12C2(I3N)2
_symmetry_space_group_name_H-M   'P 1'
_cell_length_a   8.43300568
_cell_length_b   11.89104344
_cell_length_c   8.25520250
_cell_angle_alpha   91.51649714
_cell_angle_beta   89.99842105
_cell_angle_gamma   89.98802541
_symmetry_Int_Tables_number   1
_chemical_formula_structural   GaAsH12C2(I3N)2
_chemical_formula_sum   'Ga2 As2 H24 C4 I12 N4'
_cell_volume   827.51893534
_cell_formula_units_Z   2
loop_
 _symmetry_equiv_pos_site_id
 _symmetry_equiv_pos_as_xyz
  1  'x, y, z'
loop_
 _atom_site_type_symbol
 _atom_site_label
 _atom_site_symmetry_multiplicity
 _atom_site_fract_x
 _atom_site_fract_y
 _atom_site_fract_z
 _atom_site_occupancy
  C  C0  1  0.41348143  0.25147760  0.42401062  1
  C  C1  1  0.91408309  0.24855951  0.07616288  1
  C  C2  1  0.58652115  0.74852857  0.57600085  1
  C  C3  1  0.08592053  0.75144126  0.92386675  1
  N  N4  1  0.55712255  0.25287488  0.52763014  1
  N  N5  1  0.05742086  0.24708291  0.97211056  1
  N  N6  1  0.44289025  0.74712706  0.47236616  1
  N  N7  1  0.94259384  0.75292169  0.02793525  1
  H  H8  1  0.45050399  0.24841714  0.29686500  1
  H  H9  1  0.34326750  0.17710637  0.45118263  1
  H  H10  1  0.34519840  0.32810741  0.44960583  1
  H  H11  1  0.62568374  0.18164292  0.50329859  1
  H  H12  1  0.62644045  0.32257866  0.50307183  1
  H  H13  1  0.52937824  0.25538899  0.65094194  1
  H  H14  1  0.95147502  0.25169160  0.20318870  1
  H  H15  1  0.84573162  0.17194740  0.05087244  1
  H  H16  1  0.84377951  0.32295221  0.04912277  1
  H  H17  1  0.12679605  0.17733431  0.99649441  1
  H  H18  1  0.12607016  0.31826880  0.99621203  1
  H  H19  1  0.02934586  0.24454354  0.84888003  1
  H  H20  1  0.54948776  0.75160358  0.70314264  1
  H  H21  1  0.65480274  0.67189772  0.55042024  1
  H  H22  1  0.65673942  0.82289837  0.54882054  1
  H  H23  1  0.37432506  0.81836015  0.49668706  1
  H  H24  1  0.37356736  0.67742820  0.49691145  1
  H  H25  1  0.47064652  0.74460805  0.34905686  1
  H  H26  1  0.04851760  0.74829618  0.79684428  1
  H  H27  1  0.15426826  0.82805799  0.94913764  1
  H  H28  1  0.15623092  0.67705410  0.95091735  1
  H  H29  1  0.87321214  0.82266639  0.00355599  1
  H  H30  1  0.87394307  0.68173445  0.00385080  1
  H  H31  1  0.97068220  0.75546701  0.15116312  1
  Ga  Ga32  1  0.49990428  0.99999441  0.00001839  1
  Ga  Ga33  1  0.99980514  0.50000110  0.49980550  1
  As  As34  1  0.99996049  0.00000969  0.50004985  1
  As  As35  1  0.49997709  0.50000458  0.99985176  1
  I  I36  1  0.48820446  0.25745931  0.95524923  1
  I  I37  1  0.18831951  0.01202533  0.20556626  1
  I  I38  1  0.70895406  0.00639555  0.31245072  1
  I  I39  1  0.98778565  0.24253242  0.54479243  1
  I  I40  1  0.29109000  0.99360084  0.68755898  1
  I  I41  1  0.81171231  0.98797967  0.79441169  1
  I  I42  1  0.51183121  0.74255064  0.04474872  1
  I  I43  1  0.68828706  0.48795186  0.29451404  1
  I  I44  1  0.20889681  0.49354841  0.18746829  1
  I  I45  1  0.01225335  0.75746184  0.45525378  1
  I  I46  1  0.31178305  0.51204455  0.70564254  1
  I  I47  1  0.79113201  0.50645309  0.81258702  1
