# generated using pymatgen
data_Cs2TlPI6
_symmetry_space_group_name_H-M   'P 1'
_cell_length_a   8.55911827
_cell_length_b   12.10206879
_cell_length_c   8.55909705
_cell_angle_alpha   89.98506395
_cell_angle_beta   89.99999042
_cell_angle_gamma   89.99980383
_symmetry_Int_Tables_number   1
_chemical_formula_structural   Cs2TlPI6
_chemical_formula_sum   'Cs4 Tl2 P2 I12'
_cell_volume   886.57724551
_cell_formula_units_Z   2
loop_
 _symmetry_equiv_pos_site_id
 _symmetry_equiv_pos_as_xyz
  1  'x, y, z'
loop_
 _atom_site_type_symbol
 _atom_site_label
 _atom_site_symmetry_multiplicity
 _atom_site_fract_x
 _atom_site_fract_y
 _atom_site_fract_z
 _atom_site_occupancy
  Cs  Cs0  1  0.49977481  0.24972922  0.49977087  1
  Cs  Cs1  1  0.99976971  0.25019050  0.00021495  1
  Cs  Cs2  1  0.50021984  0.74972886  0.50019845  1
  Cs  Cs3  1  0.00022578  0.75018939  0.99977874  1
  P  P4  1  0.49999799  0.99995759  0.99982987  1
  P  P5  1  0.99999640  0.49996582  0.50014799  1
  Tl  Tl6  1  0.99999827  0.99996742  0.49975917  1
  Tl  Tl7  1  0.49999491  0.49995583  0.00021865  1
  I  I8  1  0.49980456  0.23133146  0.99916891  1
  I  I9  1  0.26833156  0.00023008  0.23084284  1
  I  I10  1  0.73088263  0.00025529  0.23162427  1
  I  I11  1  0.99981726  0.26859354  0.50081048  1
  I  I12  1  0.26902808  0.99961607  0.76821238  1
  I  I13  1  0.73174542  0.99973580  0.76898990  1
  I  I14  1  0.50019095  0.76858790  0.00065072  1
  I  I15  1  0.76832442  0.49968908  0.26914144  1
  I  I16  1  0.23087671  0.49967158  0.26834851  1
  I  I17  1  0.00017626  0.73133697  0.49932318  1
  I  I18  1  0.23175153  0.50019131  0.73098102  1
  I  I19  1  0.76903829  0.50030063  0.73177650  1
