# generated using pymatgen
data_Cs2CaPbI6
_symmetry_space_group_name_H-M   'P 1'
_cell_length_a   8.82189184
_cell_length_b   12.47645581
_cell_length_c   8.82193692
_cell_angle_alpha   89.99773889
_cell_angle_beta   89.99999961
_cell_angle_gamma   89.99996277
_symmetry_Int_Tables_number   1
_chemical_formula_structural   Cs2CaPbI6
_chemical_formula_sum   'Cs4 Ca2 Pb2 I12'
_cell_volume   970.99481148
_cell_formula_units_Z   2
loop_
 _symmetry_equiv_pos_site_id
 _symmetry_equiv_pos_as_xyz
  1  'x, y, z'
loop_
 _atom_site_type_symbol
 _atom_site_label
 _atom_site_symmetry_multiplicity
 _atom_site_fract_x
 _atom_site_fract_y
 _atom_site_fract_z
 _atom_site_occupancy
  Cs  Cs0  1  0.49972169  0.24966010  0.49971083  1
  Cs  Cs1  1  0.99971472  0.25026157  0.00027651  1
  Cs  Cs2  1  0.50027302  0.74965883  0.50027604  1
  Cs  Cs3  1  0.00028099  0.75026035  0.99970016  1
  Ca  Ca4  1  0.49999945  0.99995563  0.99974172  1
  Ca  Ca5  1  0.99999547  0.49996864  0.50023625  1
  Pb  Pb6  1  0.99999868  0.99996869  0.49973977  1
  Pb  Pb7  1  0.49999467  0.49995591  0.00023835  1
  I  I8  1  0.49972782  0.24648612  0.99911603  1
  I  I9  1  0.25310608  0.00031694  0.24601615  1
  I  I10  1  0.74598692  0.00024294  0.24692022  1
  I  I11  1  0.99974390  0.25343825  0.50086453  1
  I  I12  1  0.25377389  0.99959670  0.75291232  1
  I  I13  1  0.74711924  0.99968655  0.75380795  1
  I  I14  1  0.50026642  0.75342854  0.00084849  1
  I  I15  1  0.75309957  0.49960272  0.25396540  1
  I  I16  1  0.24597913  0.49968459  0.25305276  1
  I  I17  1  0.00025040  0.74649579  0.49912115  1
  I  I18  1  0.24712496  0.50023908  0.74616167  1
  I  I19  1  0.75378837  0.50031640  0.74708253  1
