# generated using pymatgen
data_Cs2BaCaI6
_symmetry_space_group_name_H-M   'P 1'
_cell_length_a   9.04378336
_cell_length_b   12.78965927
_cell_length_c   9.04463541
_cell_angle_alpha   89.99431007
_cell_angle_beta   89.99979052
_cell_angle_gamma   89.99736623
_symmetry_Int_Tables_number   1
_chemical_formula_structural   Cs2BaCaI6
_chemical_formula_sum   'Cs4 Ba2 Ca2 I12'
_cell_volume   1046.16500336
_cell_formula_units_Z   2
loop_
 _symmetry_equiv_pos_site_id
 _symmetry_equiv_pos_as_xyz
  1  'x, y, z'
loop_
 _atom_site_type_symbol
 _atom_site_label
 _atom_site_symmetry_multiplicity
 _atom_site_fract_x
 _atom_site_fract_y
 _atom_site_fract_z
 _atom_site_occupancy
  Cs  Cs0  1  0.49975498  0.24964907  0.49975883  1
  Cs  Cs1  1  0.99974541  0.25026055  0.00023469  1
  Cs  Cs2  1  0.50025828  0.74964681  0.50025271  1
  Cs  Cs3  1  0.00026658  0.75026096  0.99972648  1
  Ca  Ca4  1  0.50003036  0.99998425  0.99981298  1
  Ca  Ca5  1  0.99996606  0.49996922  0.50017355  1
  Ba  Ba6  1  0.00005247  0.99996824  0.49975744  1
  Ba  Ba7  1  0.49996079  0.49994767  0.00022535  1
  I  I8  1  0.49973974  0.23996765  0.99865565  1
  I  I9  1  0.25932718  0.00061470  0.23929846  1
  I  I10  1  0.73926297  0.00051937  0.24079258  1
  I  I11  1  0.99974824  0.25995740  0.50132376  1
  I  I12  1  0.26046514  0.99929517  0.75917855  1
  I  I13  1  0.74092928  0.99943547  0.76049806  1
  I  I14  1  0.50028924  0.75994890  0.00126755  1
  I  I15  1  0.75925689  0.49930109  0.26067737  1
  I  I16  1  0.23921959  0.49941137  0.25921791  1
  I  I17  1  0.00026797  0.73997707  0.49868620  1
  I  I18  1  0.24094771  0.50048537  0.73938648  1
  I  I19  1  0.76045650  0.50062400  0.74086422  1
