# generated using pymatgen
data_Cs2CaSnI6
_symmetry_space_group_name_H-M   'P 1'
_cell_length_a   8.76785429
_cell_length_b   12.40263511
_cell_length_c   8.76788607
_cell_angle_alpha   89.99780848
_cell_angle_beta   90.00006263
_cell_angle_gamma   90.00011396
_symmetry_Int_Tables_number   1
_chemical_formula_structural   Cs2CaSnI6
_chemical_formula_sum   'Cs4 Ca2 Sn2 I12'
_cell_volume   953.45936323
_cell_formula_units_Z   2
loop_
 _symmetry_equiv_pos_site_id
 _symmetry_equiv_pos_as_xyz
  1  'x, y, z'
loop_
 _atom_site_type_symbol
 _atom_site_label
 _atom_site_symmetry_multiplicity
 _atom_site_fract_x
 _atom_site_fract_y
 _atom_site_fract_z
 _atom_site_occupancy
  Cs  Cs0  1  0.49976418  0.24973350  0.49976319  1
  Cs  Cs1  1  0.99975910  0.25019448  0.00022493  1
  Cs  Cs2  1  0.50023135  0.74973235  0.50022545  1
  Cs  Cs3  1  0.00023655  0.75019297  0.99975162  1
  Ca  Ca4  1  0.49999930  0.99995596  0.99976882  1
  Ca  Ca5  1  0.99999590  0.49996726  0.50020895  1
  Sn  Sn6  1  0.99999850  0.99996745  0.49976743  1
  Sn  Sn7  1  0.49999484  0.49995606  0.00021015  1
  I  I8  1  0.49975158  0.24847034  0.99913655  1
  I  I9  1  0.25111098  0.00032463  0.24799022  1
  I  I10  1  0.74798310  0.00025959  0.24889303  1
  I  I11  1  0.99976760  0.25145204  0.50084395  1
  I  I12  1  0.25182574  0.99958677  0.75094206  1
  I  I13  1  0.74906621  0.99966951  0.75183676  1
  I  I14  1  0.50024170  0.75144384  0.00083406  1
  I  I15  1  0.75110318  0.49959303  0.25199193  1
  I  I16  1  0.24797638  0.49966627  0.25107897  1
  I  I17  1  0.00022704  0.74847859  0.49913580  1
  I  I18  1  0.24907364  0.50025499  0.74813325  1
  I  I19  1  0.75183848  0.50032469  0.74905168  1
