# generated using pymatgen
data_Cs2SrCaI6
_symmetry_space_group_name_H-M   'P 1'
_cell_length_a   8.84600403
_cell_length_b   12.51023893
_cell_length_c   8.84603273
_cell_angle_alpha   89.99815060
_cell_angle_beta   90.00008640
_cell_angle_gamma   89.99995054
_symmetry_Int_Tables_number   1
_chemical_formula_structural   Cs2SrCaI6
_chemical_formula_sum   'Cs4 Sr2 Ca2 I12'
_cell_volume   978.95173188
_cell_formula_units_Z   2
loop_
 _symmetry_equiv_pos_site_id
 _symmetry_equiv_pos_as_xyz
  1  'x, y, z'
loop_
 _atom_site_type_symbol
 _atom_site_label
 _atom_site_symmetry_multiplicity
 _atom_site_fract_x
 _atom_site_fract_y
 _atom_site_fract_z
 _atom_site_occupancy
  Cs  Cs0  1  0.49970634  0.24966896  0.49969531  1
  Cs  Cs1  1  0.99969956  0.25025412  0.00029123  1
  Cs  Cs2  1  0.50028809  0.74966770  0.50029213  1
  Cs  Cs3  1  0.00029663  0.75025271  0.99968278  1
  Ca  Ca4  1  0.49999946  0.99995563  0.99975309  1
  Ca  Ca5  1  0.99999559  0.49996830  0.50022515  1
  Sr  Sr6  1  0.99999825  0.99996841  0.49974949  1
  Sr  Sr7  1  0.49999503  0.49995635  0.00022808  1
  I  I8  1  0.49973760  0.24534325  0.99913134  1
  I  I9  1  0.25425064  0.00031837  0.24487495  1
  I  I10  1  0.74485224  0.00024655  0.24577017  1
  I  I11  1  0.99975400  0.25458090  0.50084938  1
  I  I12  1  0.25491318  0.99959344  0.75405434  1
  I  I13  1  0.74597032  0.99968323  0.75494172  1
  I  I14  1  0.50025636  0.75457097  0.00082707  1
  I  I15  1  0.75424328  0.49960111  0.25510708  1
  I  I16  1  0.24484407  0.49968040  0.25420374  1
  I  I17  1  0.00024067  0.74535297  0.49914313  1
  I  I18  1  0.24597640  0.50024167  0.74502865  1
  I  I19  1  0.75492764  0.50031929  0.74594001  1
