# generated using pymatgen
data_Cs2CaGeI6
_symmetry_space_group_name_H-M   'P 1'
_cell_length_a   8.58821418
_cell_length_b   12.14643378
_cell_length_c   8.58822413
_cell_angle_alpha   90.00166283
_cell_angle_beta   89.99999002
_cell_angle_gamma   90.00002180
_symmetry_Int_Tables_number   1
_chemical_formula_structural   Cs2CaGeI6
_chemical_formula_sum   'Cs4 Ca2 Ge2 I12'
_cell_volume   895.89068993
_cell_formula_units_Z   2
loop_
 _symmetry_equiv_pos_site_id
 _symmetry_equiv_pos_as_xyz
  1  'x, y, z'
loop_
 _atom_site_type_symbol
 _atom_site_label
 _atom_site_symmetry_multiplicity
 _atom_site_fract_x
 _atom_site_fract_y
 _atom_site_fract_z
 _atom_site_occupancy
  Cs  Cs0  1  0.49973005  0.24966270  0.49971862  1
  Cs  Cs1  1  0.99972389  0.25025820  0.00026845  1
  Cs  Cs2  1  0.50026351  0.74966151  0.50026182  1
  Cs  Cs3  1  0.00027156  0.75025656  0.99971473  1
  Ca  Ca4  1  0.49999939  0.99995579  0.99974138  1
  Ca  Ca5  1  0.99999554  0.49996846  0.50023622  1
  Ge  Ge6  1  0.99999855  0.99996831  0.49973849  1
  Ge  Ge7  1  0.49999502  0.49995455  0.00023961  1
  I  I8  1  0.49974368  0.25433246  0.99917024  1
  I  I9  1  0.24531119  0.00030866  0.25383679  1
  I  I10  1  0.75381877  0.00023306  0.25470296  1
  I  I11  1  0.99975963  0.24559228  0.50081070  1
  I  I12  1  0.24597905  0.99961355  0.74513961  1
  I  I13  1  0.75487806  0.99969067  0.74600030  1
  I  I14  1  0.50024986  0.74558438  0.00082551  1
  I  I15  1  0.74530441  0.49961206  0.24614545  1
  I  I16  1  0.25381201  0.49969484  0.24527008  1
  I  I17  1  0.00023498  0.75434039  0.49914473  1
  I  I18  1  0.25488353  0.50023537  0.75396977  1
  I  I19  1  0.74599270  0.50030053  0.75485336  1
