# generated using pymatgen
data_Cs2CaZnI6
_symmetry_space_group_name_H-M   'P 1'
_cell_length_a   8.43544014
_cell_length_b   11.92736671
_cell_length_c   8.43541520
_cell_angle_alpha   90.00415549
_cell_angle_beta   89.99998536
_cell_angle_gamma   90.00009703
_symmetry_Int_Tables_number   1
_chemical_formula_structural   Cs2CaZnI6
_chemical_formula_sum   'Cs4 Ca2 Zn2 I12'
_cell_volume   848.70895116
_cell_formula_units_Z   2
loop_
 _symmetry_equiv_pos_site_id
 _symmetry_equiv_pos_as_xyz
  1  'x, y, z'
loop_
 _atom_site_type_symbol
 _atom_site_label
 _atom_site_symmetry_multiplicity
 _atom_site_fract_x
 _atom_site_fract_y
 _atom_site_fract_z
 _atom_site_occupancy
  Cs  Cs0  1  0.49974635  0.24967807  0.49973629  1
  Cs  Cs1  1  0.99974040  0.25023991  0.00024998  1
  Cs  Cs2  1  0.50024733  0.74967718  0.50023385  1
  Cs  Cs3  1  0.00025468  0.75023806  0.99974192  1
  Ca  Ca4  1  0.49999939  0.99995728  0.99977023  1
  Ca  Ca5  1  0.99999577  0.49996842  0.50020776  1
  Zn  Zn6  1  0.99999928  0.99996968  0.49978187  1
  Zn  Zn7  1  0.49999622  0.49995442  0.00020110  1
  I  I8  1  0.49976034  0.25933934  0.99917758  1
  I  I9  1  0.24035460  0.00031561  0.25878108  1
  I  I10  1  0.75877491  0.00023643  0.25964585  1
  I  I11  1  0.99977628  0.24058580  0.50080222  1
  I  I12  1  0.24107697  0.99962023  0.74022470  1
  I  I13  1  0.75977930  0.99967571  0.74108464  1
  I  I14  1  0.50023328  0.74057946  0.00083778  1
  I  I15  1  0.74034804  0.49960516  0.24120217  1
  I  I16  1  0.25876882  0.49969239  0.24032602  1
  I  I17  1  0.00021851  0.75934499  0.49913184  1
  I  I18  1  0.25978529  0.50025151  0.75888492  1
  I  I19  1  0.74108962  0.50029467  0.75976699  1
