# generated using pymatgen
data_GeH12PbC2(I3N)2
_symmetry_space_group_name_H-M   'P 1'
_cell_length_a   8.50193938
_cell_length_b   12.23064425
_cell_length_c   8.37934411
_cell_angle_alpha   89.07705878
_cell_angle_beta   90.00386160
_cell_angle_gamma   90.00597559
_symmetry_Int_Tables_number   1
_chemical_formula_structural   GeH12PbC2(I3N)2
_chemical_formula_sum   'Ge2 H24 Pb2 C4 I12 N4'
_cell_volume   871.20631062
_cell_formula_units_Z   2
loop_
 _symmetry_equiv_pos_site_id
 _symmetry_equiv_pos_as_xyz
  1  'x, y, z'
loop_
 _atom_site_type_symbol
 _atom_site_label
 _atom_site_symmetry_multiplicity
 _atom_site_fract_x
 _atom_site_fract_y
 _atom_site_fract_z
 _atom_site_occupancy
  C  C0  1  0.39641809  0.25011083  0.41530645  1
  C  C1  1  0.89758594  0.25006807  0.08580279  1
  C  C2  1  0.60357957  0.74989278  0.58470777  1
  C  C3  1  0.10242080  0.74993237  0.91420986  1
  N  N4  1  0.53651176  0.24962020  0.52086259  1
  N  N5  1  0.03701917  0.25042461  0.97938007  1
  N  N6  1  0.46348402  0.75038555  0.47915415  1
  N  N7  1  0.96298877  0.74957251  0.02063460  1
  H  H8  1  0.43601538  0.25059003  0.29089609  1
  H  H9  1  0.32742686  0.17632277  0.44015683  1
  H  H10  1  0.32671631  0.32324606  0.43868653  1
  H  H11  1  0.60516823  0.18112569  0.49842459  1
  H  H12  1  0.60519221  0.31865968  0.49789127  1
  H  H13  1  0.50647749  0.24845150  0.64169299  1
  H  H14  1  0.93799178  0.24963571  0.20996842  1
  H  H15  1  0.82760942  0.17696570  0.06297466  1
  H  H16  1  0.82858390  0.32390339  0.06134610  1
  H  H17  1  0.10569892  0.18134876  0.00204702  1
  H  H18  1  0.10591555  0.31887802  0.00138279  1
  H  H19  1  0.00630545  0.25156211  0.85873616  1
  H  H20  1  0.56398340  0.74941534  0.70911974  1
  H  H21  1  0.67327989  0.67675684  0.56132890  1
  H  H22  1  0.67257135  0.82368005  0.55985596  1
  H  H23  1  0.39482901  0.81887828  0.50159157  1
  H  H24  1  0.39480494  0.68134450  0.50212666  1
  H  H25  1  0.49351804  0.75155247  0.35832261  1
  H  H26  1  0.06201359  0.75036691  0.79004520  1
  H  H27  1  0.17239656  0.82303432  0.93704108  1
  H  H28  1  0.17142356  0.67609682  0.93866266  1
  H  H29  1  0.89430632  0.81864759  0.99797010  1
  H  H30  1  0.89409412  0.68111808  0.99863091  1
  H  H31  1  0.99370353  0.74843439  0.14127824  1
  Ge  Ge32  1  0.49999679  0.00000598  0.00000699  1
  Ge  Ge33  1  0.99998837  0.50000573  0.49997829  1
  Pb  Pb34  1  0.99999653  0.00000660  0.50001292  1
  Pb  Pb35  1  0.50000308  0.50000922  0.99998258  1
  I  I36  1  0.47526598  0.24222151  0.94378183  1
  I  I37  1  0.19230127  0.01020039  0.17231013  1
  I  I38  1  0.67329957  0.01618654  0.31135540  1
  I  I39  1  0.97464990  0.25778057  0.55679571  1
  I  I40  1  0.32670609  0.98382039  0.68866383  1
  I  I41  1  0.80770924  0.98980023  0.82770871  1
  I  I42  1  0.52473818  0.75778983  0.05623584  1
  I  I43  1  0.69231083  0.48964537  0.32760614  1
  I  I44  1  0.17342564  0.48395291  0.18872052  1
  I  I45  1  0.02534412  0.74222179  0.44321746  1
  I  I46  1  0.30768402  0.51035977  0.67239652  1
  I  I47  1  0.82657020  0.51604954  0.81128842  1
