# generated using pymatgen
data_Cs2ScTlI6
_symmetry_space_group_name_H-M   'P 1'
_cell_length_a   8.73079306
_cell_length_b   12.34813890
_cell_length_c   8.73081037
_cell_angle_alpha   89.98189119
_cell_angle_beta   90.00003528
_cell_angle_gamma   89.99975481
_symmetry_Int_Tables_number   1
_chemical_formula_structural   Cs2ScTlI6
_chemical_formula_sum   'Cs4 Sc2 Tl2 I12'
_cell_volume   941.26028387
_cell_formula_units_Z   2
loop_
 _symmetry_equiv_pos_site_id
 _symmetry_equiv_pos_as_xyz
  1  'x, y, z'
loop_
 _atom_site_type_symbol
 _atom_site_label
 _atom_site_symmetry_multiplicity
 _atom_site_fract_x
 _atom_site_fract_y
 _atom_site_fract_z
 _atom_site_occupancy
  Cs  Cs0  1  0.49973362  0.24967428  0.49971913  1
  Cs  Cs1  1  0.99972728  0.25024744  0.00026804  1
  Cs  Cs2  1  0.50026067  0.74967314  0.50025154  1
  Cs  Cs3  1  0.00026871  0.75024599  0.99972478  1
  Sc  Sc4  1  0.49999907  0.99995647  0.99978470  1
  Sc  Sc5  1  0.99999637  0.49996756  0.50019339  1
  Tl  Tl6  1  0.99999897  0.99996962  0.49971679  1
  Tl  Tl7  1  0.49999431  0.49995558  0.00026090  1
  I  I8  1  0.49975917  0.23251282  0.99911232  1
  I  I9  1  0.26706687  0.00028845  0.23206356  1
  I  I10  1  0.73205837  0.00025786  0.23293483  1
  I  I11  1  0.99977409  0.26741159  0.50086738  1
  I  I12  1  0.26775095  0.99958792  0.76689581  1
  I  I13  1  0.73310982  0.99970474  0.76776021  1
  I  I14  1  0.50023557  0.76740236  0.00076618  1
  I  I15  1  0.76706033  0.49963076  0.26791938  1
  I  I16  1  0.23205132  0.49966891  0.26703834  1
  I  I17  1  0.00022007  0.73252114  0.49920519  1
  I  I18  1  0.23311566  0.50022146  0.73220969  1
  I  I19  1  0.76776414  0.50032624  0.73309664  1
