# generated using pymatgen
data_Cs2ScAuI6
_symmetry_space_group_name_H-M   'P 1'
_cell_length_a   8.34850690
_cell_length_b   11.79744089
_cell_length_c   8.34850980
_cell_angle_alpha   89.99020631
_cell_angle_beta   89.99994658
_cell_angle_gamma   89.99987046
_symmetry_Int_Tables_number   1
_chemical_formula_structural   Cs2ScAuI6
_chemical_formula_sum   'Cs4 Sc2 Au2 I12'
_cell_volume   822.25320604
_cell_formula_units_Z   2
loop_
 _symmetry_equiv_pos_site_id
 _symmetry_equiv_pos_as_xyz
  1  'x, y, z'
loop_
 _atom_site_type_symbol
 _atom_site_label
 _atom_site_symmetry_multiplicity
 _atom_site_fract_x
 _atom_site_fract_y
 _atom_site_fract_z
 _atom_site_occupancy
  Cs  Cs0  1  0.49974155  0.24967634  0.49972246  1
  Cs  Cs1  1  0.99973587  0.25024245  0.00026403  1
  Cs  Cs2  1  0.50025246  0.74967507  0.50023347  1
  Cs  Cs3  1  0.00025980  0.75024073  0.99974301  1
  Sc  Sc4  1  0.49999919  0.99995666  0.99977893  1
  Sc  Sc5  1  0.99999610  0.49996753  0.50019906  1
  Au  Au6  1  0.99999952  0.99997007  0.49967781  1
  Au  Au7  1  0.49999443  0.49995231  0.00030115  1
  I  I8  1  0.49976223  0.24492541  0.99913594  1
  I  I9  1  0.25488244  0.00028610  0.24426725  1
  I  I10  1  0.74425879  0.00025004  0.24512040  1
  I  I11  1  0.99977719  0.25499912  0.50084374  1
  I  I12  1  0.25559259  0.99960432  0.75475502  1
  I  I13  1  0.74525198  0.99970392  0.75560318  1
  I  I14  1  0.50023216  0.75499306  0.00077781  1
  I  I15  1  0.75487611  0.49963511  0.25571649  1
  I  I16  1  0.24425302  0.49967875  0.25485193  1
  I  I17  1  0.00021666  0.74493123  0.49919327  1
  I  I18  1  0.24525824  0.50022407  0.74436678  1
  I  I19  1  0.75560502  0.50031205  0.74523707  1
