# generated using pymatgen
data_Cs2ScInI6
_symmetry_space_group_name_H-M   'P 1'
_cell_length_a   8.67612300
_cell_length_b   12.27119305
_cell_length_c   8.67614506
_cell_angle_alpha   89.98263548
_cell_angle_beta   90.00000398
_cell_angle_gamma   89.99975347
_symmetry_Int_Tables_number   1
_chemical_formula_structural   Cs2ScInI6
_chemical_formula_sum   'Cs4 Sc2 In2 I12'
_cell_volume   923.71771597
_cell_formula_units_Z   2
loop_
 _symmetry_equiv_pos_site_id
 _symmetry_equiv_pos_as_xyz
  1  'x, y, z'
loop_
 _atom_site_type_symbol
 _atom_site_label
 _atom_site_symmetry_multiplicity
 _atom_site_fract_x
 _atom_site_fract_y
 _atom_site_fract_z
 _atom_site_occupancy
  Cs  Cs0  1  0.49973706  0.24967401  0.49972303  1
  Cs  Cs1  1  0.99973092  0.25024704  0.00026407  1
  Cs  Cs2  1  0.50025726  0.74967294  0.50024737  1
  Cs  Cs3  1  0.00026481  0.75024575  0.99972928  1
  Sc  Sc4  1  0.49999893  0.99995635  0.99978118  1
  Sc  Sc5  1  0.99999614  0.49996761  0.50019666  1
  In  In6  1  0.99999888  0.99996938  0.49971567  1
  In  In7  1  0.49999441  0.49995521  0.00026201  1
  I  I8  1  0.49976261  0.23476699  0.99913126  1
  I  I9  1  0.26483597  0.00028481  0.23431081  1
  I  I10  1  0.73430675  0.00025116  0.23516477  1
  I  I11  1  0.99977739  0.26515690  0.50084818  1
  I  I12  1  0.26551139  0.99959685  0.76467211  1
  I  I13  1  0.73533231  0.99970760  0.76551978  1
  I  I14  1  0.50023202  0.76514818  0.00076242  1
  I  I15  1  0.76482912  0.49963510  0.26567214  1
  I  I16  1  0.23430009  0.49967601  0.26480865  1
  I  I17  1  0.00021643  0.73477539  0.49920868  1
  I  I18  1  0.23533857  0.50021906  0.73445067  1
  I  I19  1  0.76552431  0.50031799  0.73532006  1
