# generated using pymatgen
data_Cs2GaCoI6
_symmetry_space_group_name_H-M   'P 1'
_cell_length_a   8.12240917
_cell_length_b   11.48397342
_cell_length_c   8.12243528
_cell_angle_alpha   89.99196283
_cell_angle_beta   89.99986713
_cell_angle_gamma   89.99988421
_symmetry_Int_Tables_number   1
_chemical_formula_structural   Cs2GaCoI6
_chemical_formula_sum   'Cs4 Ga2 Co2 I12'
_cell_volume   757.64070166
_cell_formula_units_Z   2
loop_
 _symmetry_equiv_pos_site_id
 _symmetry_equiv_pos_as_xyz
  1  'x, y, z'
loop_
 _atom_site_type_symbol
 _atom_site_label
 _atom_site_symmetry_multiplicity
 _atom_site_fract_x
 _atom_site_fract_y
 _atom_site_fract_z
 _atom_site_occupancy
  Cs  Cs0  1  0.49974414  0.24972751  0.49975900  1
  Cs  Cs1  1  0.99973797  0.25019467  0.00022648  1
  Cs  Cs2  1  0.50025024  0.74972569  0.50024443  1
  Cs  Cs3  1  0.00025693  0.75019241  0.99973082  1
  Co  Co4  1  0.49999814  0.99995821  0.99986251  1
  Co  Co5  1  0.99999701  0.49996424  0.50011641  1
  Ga  Ga6  1  0.99999892  0.99996820  0.49970688  1
  Ga  Ga7  1  0.49999437  0.49995483  0.00027171  1
  I  I8  1  0.49978623  0.23301388  0.99923809  1
  I  I9  1  0.26670504  0.00022921  0.23254056  1
  I  I10  1  0.73256604  0.00020909  0.23326444  1
  I  I11  1  0.99979898  0.26691250  0.50074233  1
  I  I12  1  0.26735283  0.99965804  0.76660784  1
  I  I13  1  0.73336284  0.99974435  0.76732815  1
  I  I14  1  0.50020904  0.76690576  0.00064558  1
  I  I15  1  0.76669840  0.49969135  0.26744238  1
  I  I16  1  0.23256126  0.49971765  0.26670809  1
  I  I17  1  0.00019503  0.73301642  0.49932692  1
  I  I18  1  0.23336921  0.50018171  0.73264465  1
  I  I19  1  0.76736275  0.50025862  0.73338154  1
