# generated using pymatgen
data_Cs2YCuI6
_symmetry_space_group_name_H-M   'P 1'
_cell_length_a   8.35982085
_cell_length_b   11.81645962
_cell_length_c   8.35981022
_cell_angle_alpha   90.00567566
_cell_angle_beta   89.99997658
_cell_angle_gamma   90.00007335
_symmetry_Int_Tables_number   1
_chemical_formula_structural   Cs2YCuI6
_chemical_formula_sum   'Cs4 Y2 Cu2 I12'
_cell_volume   825.81118812
_cell_formula_units_Z   2
loop_
 _symmetry_equiv_pos_site_id
 _symmetry_equiv_pos_as_xyz
  1  'x, y, z'
loop_
 _atom_site_type_symbol
 _atom_site_label
 _atom_site_symmetry_multiplicity
 _atom_site_fract_x
 _atom_site_fract_y
 _atom_site_fract_z
 _atom_site_occupancy
  Cs  Cs0  1  0.49973435  0.24965890  0.49974182  1
  Cs  Cs1  1  0.99972770  0.25025716  0.00024460  1
  Cs  Cs2  1  0.50026039  0.74965763  0.50027410  1
  Cs  Cs3  1  0.00026751  0.75025577  0.99970160  1
  Cu  Cu4  1  0.49999914  0.99995528  0.99971244  1
  Cu  Cu5  1  0.99999474  0.49997237  0.50026892  1
  Y  Y6  1  0.99999801  0.99996712  0.49980462  1
  Y  Y7  1  0.49999538  0.49995792  0.00017345  1
  I  I8  1  0.49976616  0.24416783  0.99919141  1
  I  I9  1  0.25530986  0.00030435  0.24383842  1
  I  I10  1  0.74383971  0.00022760  0.24468511  1
  I  I11  1  0.99978161  0.25575471  0.50078857  1
  I  I12  1  0.25601843  0.99962833  0.75517867  1
  I  I13  1  0.74481884  0.99968683  0.75602030  1
  I  I14  1  0.50022756  0.75575144  0.00080204  1
  I  I15  1  0.75530009  0.49961667  0.25614142  1
  I  I16  1  0.24383613  0.49970100  0.25528444  1
  I  I17  1  0.00021321  0.74417632  0.49916822  1
  I  I18  1  0.24482827  0.50024016  0.74395318  1
  I  I19  1  0.75602830  0.50028695  0.74481547  1
