# generated using pymatgen
data_H6AuCI3N
_symmetry_space_group_name_H-M   'P 1'
_cell_length_a   7.85571824
_cell_length_b   11.74018596
_cell_length_c   8.92028612
_cell_angle_alpha   93.02488118
_cell_angle_beta   89.99045826
_cell_angle_gamma   89.99898887
_symmetry_Int_Tables_number   1
_chemical_formula_structural   H6AuCI3N
_chemical_formula_sum   'H24 Au4 C4 I12 N4'
_cell_volume   821.55025368
_cell_formula_units_Z   4
loop_
 _symmetry_equiv_pos_site_id
 _symmetry_equiv_pos_as_xyz
  1  'x, y, z'
loop_
 _atom_site_type_symbol
 _atom_site_label
 _atom_site_symmetry_multiplicity
 _atom_site_fract_x
 _atom_site_fract_y
 _atom_site_fract_z
 _atom_site_occupancy
  C  C0  1  0.41777358  0.24611416  0.39120551  1
  C  C1  1  0.91761646  0.25393164  0.10874307  1
  C  C2  1  0.58221567  0.75389636  0.60880990  1
  C  C3  1  0.08238725  0.74607141  0.89128252  1
  N  N4  1  0.51948881  0.25533257  0.53157969  1
  N  N5  1  0.01943234  0.24468548  0.96839709  1
  N  N6  1  0.48051287  0.74467482  0.46842859  1
  N  N7  1  0.98058268  0.75530751  0.03163541  1
  H  H8  1  0.50531478  0.24077671  0.29566536  1
  H  H9  1  0.33989854  0.16892972  0.39183929  1
  H  H10  1  0.33726580  0.32196946  0.38644438  1
  H  H11  1  0.60068369  0.18598480  0.53706504  1
  H  H12  1  0.59428545  0.32851892  0.53347258  1
  H  H13  1  0.44416840  0.25923249  0.62709744  1
  H  H14  1  0.00509121  0.25925068  0.20430771  1
  H  H15  1  0.83706690  0.17809886  0.11348905  1
  H  H16  1  0.83978374  0.33113648  0.10808757  1
  H  H17  1  0.09418559  0.17147703  0.96652286  1
  H  H18  1  0.10066884  0.31400861  0.96293180  1
  H  H19  1  0.94417819  0.24080825  0.87285541  1
  H  H20  1  0.49466535  0.75922347  0.70434385  1
  H  H21  1  0.66273600  0.67804728  0.61357211  1
  H  H22  1  0.66007724  0.83108732  0.60818618  1
  H  H23  1  0.39931669  0.81402133  0.46293633  1
  H  H24  1  0.40571857  0.67148746  0.46653056  1
  H  H25  1  0.55584234  0.74077552  0.37291640  1
  H  H26  1  0.99490528  0.74075050  0.79572319  1
  H  H27  1  0.16292739  0.82190874  0.88653686  1
  H  H28  1  0.16022942  0.66887066  0.89192996  1
  H  H29  1  0.90581624  0.82851003  0.03351862  1
  H  H30  1  0.89935941  0.68597830  0.03710560  1
  H  H31  1  0.05584528  0.75918828  0.12717188  1
  Au  Au32  1  0.50000218  0.00001496  0.99997676  1
  Au  Au33  1  0.99998685  0.49999573  0.49999064  1
  Au  Au34  1  0.99999791  0.00000130  0.49999885  1
  Au  Au35  1  0.50000253  0.50000292  0.99998880  1
  I  I36  1  0.47860704  0.27035108  0.94848172  1
  I  I37  1  0.21397981  0.00751927  0.14914541  1
  I  I38  1  0.71190017  0.99814197  0.33678861  1
  I  I39  1  0.97861716  0.22966073  0.55146159  1
  I  I40  1  0.28808652  0.00186518  0.66322416  1
  I  I41  1  0.78605943  0.99248330  0.85086600  1
  I  I42  1  0.52140518  0.72965276  0.05151516  1
  I  I43  1  0.71400013  0.49252421  0.35084474  1
  I  I44  1  0.21185959  0.50183141  0.16322048  1
  I  I45  1  0.02138116  0.77034036  0.44854824  1
  I  I46  1  0.28595848  0.50747516  0.64915971  1
  I  I47  1  0.78813960  0.49816310  0.83675389  1
