# generated using pymatgen
data_GeH12PtC2(I3N)2
_symmetry_space_group_name_H-M   'P 1'
_cell_length_a   8.78448505
_cell_length_b   11.15252194
_cell_length_c   8.58239300
_cell_angle_alpha   91.42216896
_cell_angle_beta   90.13005017
_cell_angle_gamma   90.03860277
_symmetry_Int_Tables_number   1
_chemical_formula_structural   GeH12PtC2(I3N)2
_chemical_formula_sum   'Ge2 H24 Pt2 C4 I12 N4'
_cell_volume   840.54846126
_cell_formula_units_Z   2
loop_
 _symmetry_equiv_pos_site_id
 _symmetry_equiv_pos_as_xyz
  1  'x, y, z'
loop_
 _atom_site_type_symbol
 _atom_site_label
 _atom_site_symmetry_multiplicity
 _atom_site_fract_x
 _atom_site_fract_y
 _atom_site_fract_z
 _atom_site_occupancy
  C  C0  1  0.45839817  0.29318649  0.38136813  1
  C  C1  1  0.94640301  0.20740442  0.08075707  1
  C  C2  1  0.55297460  0.70758179  0.57955165  1
  C  C3  1  0.04212960  0.79260733  0.87962863  1
  N  N4  1  0.55188359  0.27631370  0.52276713  1
  N  N5  1  0.09092703  0.24950930  0.01086381  1
  N  N6  1  0.40880478  0.74964777  0.50836595  1
  N  N7  1  0.94836496  0.77621088  0.02050992  1
  H  H8  1  0.52841619  0.27351824  0.27844224  1
  H  H9  1  0.36225766  0.23060389  0.38346018  1
  H  H10  1  0.41899025  0.38621133  0.37885317  1
  H  H11  1  0.59860362  0.19003036  0.51923904  1
  H  H12  1  0.64326922  0.33556645  0.52409767  1
  H  H13  1  0.49360874  0.28821524  0.62799035  1
  H  H14  1  0.96735835  0.18277996  0.20177389  1
  H  H15  1  0.90596177  0.12804335  0.01514195  1
  H  H16  1  0.86128743  0.27895718  0.07533971  1
  H  H17  1  0.17886274  0.18851646  0.02792675  1
  H  H18  1  0.12744546  0.33268319  0.05645447  1
  H  H19  1  0.07859175  0.25864824  0.89109134  1
  H  H20  1  0.53119505  0.68200973  0.69996891  1
  H  H21  1  0.59426917  0.62884100  0.51350516  1
  H  H22  1  0.63780946  0.77952214  0.57604478  1
  H  H23  1  0.37207551  0.83266379  0.55400413  1
  H  H24  1  0.32078637  0.68852933  0.52435986  1
  H  H25  1  0.42178799  0.75913093  0.38877720  1
  H  H26  1  0.97249577  0.77197681  0.77636646  1
  H  H27  1  0.08106105  0.88576822  0.87641219  1
  H  H28  1  0.13857914  0.73048067  0.88310676  1
  H  H29  1  0.85694260  0.83535446  0.02069799  1
  H  H30  1  0.90164646  0.68987674  0.01735525  1
  H  H31  1  0.00641288  0.78867687  0.12604119  1
  Ge  Ge32  1  0.42050435  0.86131051  0.93158775  1
  Ge  Ge33  1  0.07998915  0.36158465  0.43253548  1
  Pt  Pt34  1  0.98183969  0.01249372  0.51706125  1
  Pt  Pt35  1  0.51803939  0.51244816  0.01742953  1
  I  I36  1  0.48331437  0.28673274  0.93353427  1
  I  I37  1  0.28973654  0.99563518  0.16089219  1
  I  I38  1  0.72166392  0.01354812  0.36169664  1
  I  I39  1  0.91744419  0.22098551  0.64689527  1
  I  I40  1  0.25806958  0.03146173  0.64232271  1
  I  I41  1  0.67329829  0.97775149  0.84580397  1
  I  I42  1  0.58407751  0.72115675  0.14619985  1
  I  I43  1  0.82683572  0.47726442  0.34592302  1
  I  I44  1  0.24270270  0.53197839  0.14338146  1
  I  I45  1  0.01530618  0.78699797  0.43196603  1
  I  I46  1  0.21052287  0.49674705  0.66161948  1
  I  I47  1  0.77707889  0.51291564  0.86118477  1
