# generated using pymatgen
data_Cs2BaZnI6
_symmetry_space_group_name_H-M   'P 1'
_cell_length_a   8.75931448
_cell_length_b   12.38411383
_cell_length_c   8.75932595
_cell_angle_alpha   89.99206881
_cell_angle_beta   89.99996924
_cell_angle_gamma   89.99987460
_symmetry_Int_Tables_number   1
_chemical_formula_structural   Cs2BaZnI6
_chemical_formula_sum   'Cs4 Ba2 Zn2 I12'
_cell_volume   950.17967668
_cell_formula_units_Z   2
loop_
 _symmetry_equiv_pos_site_id
 _symmetry_equiv_pos_as_xyz
  1  'x, y, z'
loop_
 _atom_site_type_symbol
 _atom_site_label
 _atom_site_symmetry_multiplicity
 _atom_site_fract_x
 _atom_site_fract_y
 _atom_site_fract_z
 _atom_site_occupancy
  Cs  Cs0  1  0.49972866  0.24968008  0.49973022  1
  Cs  Cs1  1  0.99972198  0.25023734  0.00025650  1
  Cs  Cs2  1  0.50026609  0.74967895  0.50026678  1
  Cs  Cs3  1  0.00027355  0.75023620  0.99970915  1
  Zn  Zn4  1  0.49999891  0.99996891  0.99967857  1
  Zn  Zn5  1  0.99999421  0.49997749  0.50029583  1
  Ba  Ba6  1  0.99999864  0.99996867  0.49976037  1
  Ba  Ba7  1  0.49999492  0.49995860  0.00021756  1
  I  I8  1  0.49976489  0.23065726  0.99911761  1
  I  I9  1  0.26880094  0.00030158  0.23030641  1
  I  I10  1  0.73030194  0.00026798  0.23120025  1
  I  I11  1  0.99977993  0.26926566  0.50086324  1
  I  I12  1  0.26952590  0.99957706  0.76864660  1
  I  I13  1  0.73135767  0.99968605  0.76953426  1
  I  I14  1  0.50023031  0.76925868  0.00076864  1
  I  I15  1  0.76879358  0.49961403  0.26967712  1
  I  I16  1  0.23029492  0.49965582  0.26877313  1
  I  I17  1  0.00021470  0.73066380  0.49920398  1
  I  I18  1  0.23136431  0.50023683  0.73043634  1
  I  I19  1  0.76953931  0.50033332  0.73134625  1
