# generated using pymatgen
data_Cs2GaBiI6
_symmetry_space_group_name_H-M   'P 1'
_cell_length_a   8.68741558
_cell_length_b   12.29020918
_cell_length_c   8.68744239
_cell_angle_alpha   90.00482797
_cell_angle_beta   90.00009754
_cell_angle_gamma   90.00005747
_symmetry_Int_Tables_number   1
_chemical_formula_structural   Cs2GaBiI6
_chemical_formula_sum   'Cs4 Ga2 Bi2 I12'
_cell_volume   927.55956479
_cell_formula_units_Z   2
loop_
 _symmetry_equiv_pos_site_id
 _symmetry_equiv_pos_as_xyz
  1  'x, y, z'
loop_
 _atom_site_type_symbol
 _atom_site_label
 _atom_site_symmetry_multiplicity
 _atom_site_fract_x
 _atom_site_fract_y
 _atom_site_fract_z
 _atom_site_occupancy
  Cs  Cs0  1  0.49972784  0.24966822  0.49972069  1
  Cs  Cs1  1  0.99972118  0.25025355  0.00026661  1
  Cs  Cs2  1  0.50026659  0.74966698  0.50026952  1
  Cs  Cs3  1  0.00027441  0.75025223  0.99970669  1
  Ga  Ga4  1  0.49999952  0.99995348  0.99970255  1
  Ga  Ga5  1  0.99999495  0.49996905  0.50027569  1
  Bi  Bi6  1  0.99999776  0.99996766  0.49978167  1
  Bi  Bi7  1  0.49999464  0.49995762  0.00019579  1
  I  I8  1  0.49974606  0.24913366  0.99918802  1
  I  I9  1  0.25040354  0.00031057  0.24875535  1
  I  I10  1  0.74874157  0.00022447  0.24960764  1
  I  I11  1  0.99976179  0.25079091  0.50079277  1
  I  I12  1  0.25105678  0.99962212  0.75022903  1
  I  I13  1  0.74978539  0.99968843  0.75107455  1
  I  I14  1  0.50024764  0.75078154  0.00081650  1
  I  I15  1  0.75039686  0.49960967  0.25122675  1
  I  I16  1  0.24873458  0.49970296  0.25036572  1
  I  I17  1  0.00023318  0.74914267  0.49915348  1
  I  I18  1  0.24979103  0.50023704  0.74889594  1
  I  I19  1  0.75107007  0.50029150  0.74976382  1
