# generated using pymatgen
data_Cs2GaIrI6
_symmetry_space_group_name_H-M   'P 1'
_cell_length_a   8.25032873
_cell_length_b   11.65975881
_cell_length_c   8.25034129
_cell_angle_alpha   90.01114960
_cell_angle_beta   89.99999300
_cell_angle_gamma   90.00014621
_symmetry_Int_Tables_number   1
_chemical_formula_structural   Cs2GaIrI6
_chemical_formula_sum   'Cs4 Ga2 Ir2 I12'
_cell_volume   793.65677067
_cell_formula_units_Z   2
loop_
 _symmetry_equiv_pos_site_id
 _symmetry_equiv_pos_as_xyz
  1  'x, y, z'
loop_
 _atom_site_type_symbol
 _atom_site_label
 _atom_site_symmetry_multiplicity
 _atom_site_fract_x
 _atom_site_fract_y
 _atom_site_fract_z
 _atom_site_occupancy
  Cs  Cs0  1  0.49977311  0.24972022  0.49976543  1
  Cs  Cs1  1  0.99976798  0.25020205  0.00022159  1
  Cs  Cs2  1  0.50022177  0.74971849  0.50020009  1
  Cs  Cs3  1  0.00022792  0.75020053  0.99977805  1
  Ga  Ga4  1  0.49999973  0.99995478  0.99971017  1
  Ga  Ga5  1  0.99999475  0.49996821  0.50026807  1
  Ir  Ir6  1  0.99999740  0.99996435  0.49987383  1
  Ir  Ir7  1  0.49999653  0.49995883  0.00010404  1
  I  I8  1  0.49976710  0.26635948  0.99929270  1
  I  I9  1  0.23317193  0.00027728  0.26602454  1
  I  I10  1  0.76604644  0.00019069  0.26680076  1
  I  I11  1  0.99978223  0.23356372  0.50068828  1
  I  I12  1  0.23384852  0.99968037  0.73305552  1
  I  I13  1  0.76691964  0.99970254  0.73382853  1
  I  I14  1  0.50022591  0.73355846  0.00079993  1
  I  I15  1  0.73316581  0.49964379  0.23395881  1
  I  I16  1  0.26604045  0.49973721  0.23317168  1
  I  I17  1  0.00021308  0.76636483  0.49917061  1
  I  I18  1  0.26692528  0.50022321  0.76614225  1
  I  I19  1  0.73385979  0.50023528  0.76693395  1
