# generated using pymatgen
data_Cs2GaRhI6
_symmetry_space_group_name_H-M   'P 1'
_cell_length_a   8.21142339
_cell_length_b   11.59770124
_cell_length_c   8.21145796
_cell_angle_alpha   90.00765301
_cell_angle_beta   90.00002560
_cell_angle_gamma   90.00009474
_symmetry_Int_Tables_number   1
_chemical_formula_structural   Cs2GaRhI6
_chemical_formula_sum   'Cs4 Ga2 Rh2 I12'
_cell_volume   782.00698414
_cell_formula_units_Z   2
loop_
 _symmetry_equiv_pos_site_id
 _symmetry_equiv_pos_as_xyz
  1  'x, y, z'
loop_
 _atom_site_type_symbol
 _atom_site_label
 _atom_site_symmetry_multiplicity
 _atom_site_fract_x
 _atom_site_fract_y
 _atom_site_fract_z
 _atom_site_occupancy
  Cs  Cs0  1  0.49975217  0.24972855  0.49974491  1
  Cs  Cs1  1  0.99974660  0.25019264  0.00024090  1
  Cs  Cs2  1  0.50024215  0.74972699  0.50021474  1
  Cs  Cs3  1  0.00024898  0.75019089  0.99976134  1
  Ga  Ga4  1  0.49999978  0.99995544  0.99971402  1
  Ga  Ga5  1  0.99999485  0.49996807  0.50026425  1
  Rh  Rh6  1  0.99999739  0.99996403  0.49988137  1
  Rh  Rh7  1  0.49999641  0.49995934  0.00009705  1
  I  I8  1  0.49977526  0.26432166  0.99931905  1
  I  I9  1  0.23502544  0.00026606  0.26420227  1
  I  I10  1  0.76422654  0.00018492  0.26494466  1
  I  I11  1  0.99978974  0.23560305  0.50066232  1
  I  I12  1  0.23568013  0.99968808  0.73491745  1
  I  I13  1  0.76505493  0.99971181  0.73565717  1
  I  I14  1  0.50021784  0.73559666  0.00075954  1
  I  I15  1  0.73501818  0.49965532  0.23578010  1
  I  I16  1  0.26422230  0.49974298  0.23502673  1
  I  I17  1  0.00020550  0.76432555  0.49921173  1
  I  I18  1  0.26506194  0.50021416  0.76431575  1
  I  I19  1  0.73568924  0.50022815  0.76507346  1
