# generated using pymatgen
data_Cs2YGaI6
_symmetry_space_group_name_H-M   'P 1'
_cell_length_a   8.70751472
_cell_length_b   12.31764951
_cell_length_c   8.70753138
_cell_angle_alpha   90.01186381
_cell_angle_beta   90.00004295
_cell_angle_gamma   90.00015145
_symmetry_Int_Tables_number   1
_chemical_formula_structural   Cs2YGaI6
_chemical_formula_sum   'Cs4 Y2 Ga2 I12'
_cell_volume   933.93596166
_cell_formula_units_Z   2
loop_
 _symmetry_equiv_pos_site_id
 _symmetry_equiv_pos_as_xyz
  1  'x, y, z'
loop_
 _atom_site_type_symbol
 _atom_site_label
 _atom_site_symmetry_multiplicity
 _atom_site_fract_x
 _atom_site_fract_y
 _atom_site_fract_z
 _atom_site_occupancy
  Cs  Cs0  1  0.49973823  0.24967423  0.49973465  1
  Cs  Cs1  1  0.99973194  0.25024802  0.00025254  1
  Cs  Cs2  1  0.50025623  0.74967296  0.50026175  1
  Cs  Cs3  1  0.00026346  0.75024681  0.99971526  1
  Ga  Ga4  1  0.49999942  0.99995442  0.99971121  1
  Ga  Ga5  1  0.99999485  0.49996928  0.50026677  1
  Y  Y6  1  0.99999786  0.99996753  0.49977449  1
  Y  Y7  1  0.49999472  0.49995673  0.00020262  1
  I  I8  1  0.49975094  0.25514926  0.99918712  1
  I  I9  1  0.24448464  0.00032180  0.25465256  1
  I  I10  1  0.75464041  0.00022785  0.25552394  1
  I  I11  1  0.99976699  0.24477480  0.50079386  1
  I  I12  1  0.24516028  0.99961878  0.74430976  1
  I  I13  1  0.75570214  0.99967742  0.74517600  1
  I  I14  1  0.50024237  0.74476561  0.00083693  1
  I  I15  1  0.74447795  0.49959830  0.24532978  1
  I  I16  1  0.25463352  0.49969976  0.24444912  1
  I  I17  1  0.00022787  0.75515818  0.49913322  1
  I  I18  1  0.25570794  0.50024806  0.75479414  1
  I  I19  1  0.74517362  0.50029452  0.75568310  1
