# generated using pymatgen
data_BaGeH12C2(I3N)2
_symmetry_space_group_name_H-M   'P 1'
_cell_length_a   8.75216657
_cell_length_b   12.55660592
_cell_length_c   8.48898706
_cell_angle_alpha   88.49954909
_cell_angle_beta   89.95920534
_cell_angle_gamma   89.96917105
_symmetry_Int_Tables_number   1
_chemical_formula_structural   BaGeH12C2(I3N)2
_chemical_formula_sum   'Ba2 Ge2 H24 C4 I12 N4'
_cell_volume   932.59826907
_cell_formula_units_Z   2
loop_
 _symmetry_equiv_pos_site_id
 _symmetry_equiv_pos_as_xyz
  1  'x, y, z'
loop_
 _atom_site_type_symbol
 _atom_site_label
 _atom_site_symmetry_multiplicity
 _atom_site_fract_x
 _atom_site_fract_y
 _atom_site_fract_z
 _atom_site_occupancy
  C  C0  1  0.41552231  0.25076498  0.42879768  1
  C  C1  1  0.91607984  0.24948299  0.07175500  1
  C  C2  1  0.58515465  0.74988118  0.57242397  1
  C  C3  1  0.08464099  0.75068875  0.92910699  1
  N  N4  1  0.55253374  0.24893584  0.53212010  1
  N  N5  1  0.05302589  0.25130003  0.96816126  1
  N  N6  1  0.44858749  0.75041078  0.46854211  1
  N  N7  1  0.94789161  0.74976564  0.03296147  1
  H  H8  1  0.45373235  0.25133686  0.30585925  1
  H  H9  1  0.34861273  0.17870262  0.45408259  1
  H  H10  1  0.34856984  0.32225982  0.45236292  1
  H  H11  1  0.61825965  0.18207356  0.50919945  1
  H  H12  1  0.61986594  0.31604741  0.50945091  1
  H  H13  1  0.52388911  0.24661795  0.65188247  1
  H  H14  1  0.95438452  0.24814352  0.19463909  1
  H  H15  1  0.84856432  0.17840075  0.04761919  1
  H  H16  1  0.84965604  0.32195275  0.04754326  1
  H  H17  1  0.12013526  0.18396349  0.99043898  1
  H  H18  1  0.11895288  0.31797678  0.99148279  1
  H  H19  1  0.02441558  0.25394100  0.84848083  1
  H  H20  1  0.54651240  0.74933856  0.69523468  1
  H  H21  1  0.65348876  0.67890753  0.54950427  1
  H  H22  1  0.65093102  0.82245189  0.54715075  1
  H  H23  1  0.38163764  0.81679747  0.49069321  1
  H  H24  1  0.38229390  0.68273501  0.49139501  1
  H  H25  1  0.47765253  0.75254063  0.34891266  1
  H  H26  1  0.04625353  0.75033678  0.80631734  1
  H  H27  1  0.15168868  0.82230021  0.95128319  1
  H  H28  1  0.15160267  0.67875377  0.95535227  1
  H  H29  1  0.88078023  0.81700658  0.00974284  1
  H  H30  1  0.88178514  0.68298534  0.01139862  1
  H  H31  1  0.97692381  0.74809593  0.15261274  1
  Ge  Ge32  1  0.49736686  0.99913689  0.99919611  1
  Ge  Ge33  1  0.99870665  0.49939993  0.49685866  1
  Ba  Ba34  1  0.99676415  0.99926771  0.50001300  1
  Ba  Ba35  1  0.50075158  0.49968257  0.99569862  1
  I  I36  1  0.48068449  0.23515440  0.94291573  1
  I  I37  1  0.19514076  0.01409124  0.16040335  1
  I  I38  1  0.66002744  0.02225326  0.30889782  1
  I  I39  1  0.98050800  0.26373654  0.55668425  1
  I  I40  1  0.33524580  0.97747504  0.69007875  1
  I  I41  1  0.80174169  0.98593258  0.84130842  1
  I  I42  1  0.51840814  0.76352715  0.05720847  1
  I  I43  1  0.69558877  0.48632877  0.33818270  1
  I  I44  1  0.16360744  0.47747080  0.18859226  1
  I  I45  1  0.01980953  0.73534322  0.44250428  1
  I  I46  1  0.30219403  0.51361887  0.65729479  1
  I  I47  1  0.83945332  0.52276290  0.80795148  1
