# generated using pymatgen
data_Cs2SrGeI6
_symmetry_space_group_name_H-M   'P 1'
_cell_length_a   8.73205933
_cell_length_b   12.35017474
_cell_length_c   8.73208459
_cell_angle_alpha   89.99716326
_cell_angle_beta   89.99997684
_cell_angle_gamma   89.99994194
_symmetry_Int_Tables_number   1
_chemical_formula_structural   Cs2SrGeI6
_chemical_formula_sum   'Cs4 Sr2 Ge2 I12'
_cell_volume   941.68946998
_cell_formula_units_Z   2
loop_
 _symmetry_equiv_pos_site_id
 _symmetry_equiv_pos_as_xyz
  1  'x, y, z'
loop_
 _atom_site_type_symbol
 _atom_site_label
 _atom_site_symmetry_multiplicity
 _atom_site_fract_x
 _atom_site_fract_y
 _atom_site_fract_z
 _atom_site_occupancy
  Cs  Cs0  1  0.49971384  0.24967106  0.49970603  1
  Cs  Cs1  1  0.99970709  0.25025158  0.00028069  1
  Cs  Cs2  1  0.50028049  0.74966983  0.50028416  1
  Cs  Cs3  1  0.00028844  0.75025035  0.99969148  1
  Ge  Ge4  1  0.49999907  0.99995494  0.99974778  1
  Ge  Ge5  1  0.99999558  0.49996810  0.50023065  1
  Sr  Sr6  1  0.99999865  0.99996871  0.49974408  1
  Sr  Sr7  1  0.49999470  0.49995636  0.00023378  1
  I  I8  1  0.49973681  0.24107664  0.99912251  1
  I  I9  1  0.25853381  0.00031300  0.24059156  1
  I  I10  1  0.74056998  0.00024550  0.24148481  1
  I  I11  1  0.99975267  0.25884803  0.50085817  1
  I  I12  1  0.25920735  0.99959526  0.75834815  1
  I  I13  1  0.74167535  0.99968706  0.75923375  1
  I  I14  1  0.50025742  0.75883878  0.00081850  1
  I  I15  1  0.75852725  0.49960637  0.25939061  1
  I  I16  1  0.24056270  0.49968139  0.25848832  1
  I  I17  1  0.00024188  0.74108554  0.49915184  1
  I  I18  1  0.24168086  0.50023817  0.74073604  1
  I  I19  1  0.75922141  0.50031766  0.74164590  1
