# generated using pymatgen
data_Cs2TlAsI6
_symmetry_space_group_name_H-M   'P 1'
_cell_length_a   8.65146662
_cell_length_b   12.23318705
_cell_length_c   8.65147941
_cell_angle_alpha   89.98563079
_cell_angle_beta   90.00002438
_cell_angle_gamma   89.99980069
_symmetry_Int_Tables_number   1
_chemical_formula_structural   Cs2TlAsI6
_chemical_formula_sum   'Cs4 Tl2 As2 I12'
_cell_volume   915.62937646
_cell_formula_units_Z   2
loop_
 _symmetry_equiv_pos_site_id
 _symmetry_equiv_pos_as_xyz
  1  'x, y, z'
loop_
 _atom_site_type_symbol
 _atom_site_label
 _atom_site_symmetry_multiplicity
 _atom_site_fract_x
 _atom_site_fract_y
 _atom_site_fract_z
 _atom_site_occupancy
  Cs  Cs0  1  0.49973837  0.24967819  0.49972874  1
  Cs  Cs1  1  0.99973220  0.25024316  0.00025843  1
  Cs  Cs2  1  0.50025612  0.74967698  0.50024854  1
  Cs  Cs3  1  0.00026347  0.75024199  0.99972818  1
  As  As4  1  0.49999839  0.99995549  0.99979327  1
  As  As5  1  0.99999609  0.49996640  0.50018496  1
  Tl  Tl6  1  0.99999892  0.99996911  0.49971909  1
  Tl  Tl7  1  0.49999431  0.49995549  0.00025860  1
  I  I8  1  0.49975957  0.23520393  0.99914226  1
  I  I9  1  0.26449341  0.00027458  0.23466934  1
  I  I10  1  0.73466915  0.00024189  0.23550369  1
  I  I11  1  0.99977407  0.26472065  0.50083749  1
  I  I12  1  0.26515267  0.99960920  0.76432928  1
  I  I13  1  0.73567173  0.99971418  0.76515710  1
  I  I14  1  0.50023511  0.76471223  0.00074193  1
  I  I15  1  0.76448670  0.49964539  0.26531316  1
  I  I16  1  0.23466256  0.49968532  0.26446939  1
  I  I17  1  0.00021981  0.73521231  0.49922918  1
  I  I18  1  0.23567749  0.50021213  0.73481340  1
  I  I19  1  0.76516522  0.50030572  0.73566279  1
