# generated using pymatgen
data_Cs2SrPbI6
_symmetry_space_group_name_H-M   'P 1'
_cell_length_a   8.96606611
_cell_length_b   12.68196482
_cell_length_c   8.96609182
_cell_angle_alpha   89.99942627
_cell_angle_beta   89.99986004
_cell_angle_gamma   89.99987498
_symmetry_Int_Tables_number   1
_chemical_formula_structural   Cs2SrPbI6
_chemical_formula_sum   'Cs4 Sr2 Pb2 I12'
_cell_volume   1019.51040649
_cell_formula_units_Z   2
loop_
 _symmetry_equiv_pos_site_id
 _symmetry_equiv_pos_as_xyz
  1  'x, y, z'
loop_
 _atom_site_type_symbol
 _atom_site_label
 _atom_site_symmetry_multiplicity
 _atom_site_fract_x
 _atom_site_fract_y
 _atom_site_fract_z
 _atom_site_occupancy
  Cs  Cs0  1  0.49973398  0.24970294  0.49973030  1
  Cs  Cs1  1  0.99972761  0.25022823  0.00025739  1
  Cs  Cs2  1  0.50025914  0.74970193  0.50025245  1
  Cs  Cs3  1  0.00026692  0.75022721  0.99972499  1
  Sr  Sr4  1  0.49999989  0.99995467  0.99975088  1
  Sr  Sr5  1  0.99999590  0.49996765  0.50022842  1
  Pb  Pb6  1  0.99999848  0.99996777  0.49975148  1
  Pb  Pb7  1  0.49999476  0.49995494  0.00022771  1
  I  I8  1  0.49972691  0.25107439  0.99898577  1
  I  I9  1  0.24846297  0.00042738  0.25050075  1
  I  I10  1  0.75047605  0.00033451  0.25155909  1
  I  I11  1  0.99974369  0.24884721  0.50099520  1
  I  I12  1  0.24928443  0.99949138  0.74825688  1
  I  I13  1  0.75176429  0.99958614  0.74930892  1
  I  I14  1  0.50026490  0.74883654  0.00099637  1
  I  I15  1  0.74845727  0.49948852  0.24948063  1
  I  I16  1  0.25046858  0.49959089  0.24841491  1
  I  I17  1  0.00024813  0.75108489  0.49897062  1
  I  I18  1  0.25177316  0.50033563  0.75065820  1
  I  I19  1  0.74929832  0.50042152  0.75173785  1
