# generated using pymatgen
data_Cs2SrOsI6
_symmetry_space_group_name_H-M   'P 1'
_cell_length_a   8.37395541
_cell_length_b   11.84169028
_cell_length_c   8.37394130
_cell_angle_alpha   90.00781050
_cell_angle_beta   90.00002076
_cell_angle_gamma   90.00010533
_symmetry_Int_Tables_number   1
_chemical_formula_structural   Cs2SrOsI6
_chemical_formula_sum   'Cs4 Sr2 Os2 I12'
_cell_volume   830.37497111
_cell_formula_units_Z   2
loop_
 _symmetry_equiv_pos_site_id
 _symmetry_equiv_pos_as_xyz
  1  'x, y, z'
loop_
 _atom_site_type_symbol
 _atom_site_label
 _atom_site_symmetry_multiplicity
 _atom_site_fract_x
 _atom_site_fract_y
 _atom_site_fract_z
 _atom_site_occupancy
  Cs  Cs0  1  0.49974487  0.24969810  0.49972471  1
  Cs  Cs1  1  0.99973963  0.25022118  0.00026138  1
  Cs  Cs2  1  0.50024909  0.74969768  0.50021963  1
  Cs  Cs3  1  0.00025629  0.75022079  0.99975680  1
  Sr  Sr4  1  0.49999919  0.99995743  0.99977731  1
  Sr  Sr5  1  0.99999550  0.49996743  0.50020052  1
  Os  Os6  1  0.99999758  0.99996497  0.49986955  1
  Os  Os7  1  0.49999652  0.49995946  0.00010874  1
  I  I8  1  0.49975486  0.26997831  0.99921022  1
  I  I9  1  0.22961336  0.00032127  0.26949531  1
  I  I10  1  0.76951360  0.00023541  0.27036422  1
  I  I11  1  0.99977141  0.22994570  0.50077112  1
  I  I12  1  0.23033921  0.99962920  0.72945923  1
  I  I13  1  0.77052098  0.99966473  0.73032304  1
  I  I14  1  0.50023838  0.72993863  0.00088319  1
  I  I15  1  0.72960612  0.49959902  0.23048851  1
  I  I16  1  0.26950645  0.49969303  0.22960841  1
  I  I17  1  0.00022405  0.76998556  0.49908726  1
  I  I18  1  0.27052694  0.50026136  0.76964701  1
  I  I19  1  0.73035132  0.50028508  0.77053264  1
