# generated using pymatgen
data_Cs2BaSrI6
_symmetry_space_group_name_H-M   'P 1'
_cell_length_a   9.19918172
_cell_length_b   13.00972288
_cell_length_c   9.19942259
_cell_angle_alpha   90.00455061
_cell_angle_beta   90.00005439
_cell_angle_gamma   89.99991292
_symmetry_Int_Tables_number   1
_chemical_formula_structural   Cs2BaSrI6
_chemical_formula_sum   'Cs4 Ba2 Sr2 I12'
_cell_volume   1100.97589762
_cell_formula_units_Z   2
loop_
 _symmetry_equiv_pos_site_id
 _symmetry_equiv_pos_as_xyz
  1  'x, y, z'
loop_
 _atom_site_type_symbol
 _atom_site_label
 _atom_site_symmetry_multiplicity
 _atom_site_fract_x
 _atom_site_fract_y
 _atom_site_fract_z
 _atom_site_occupancy
  Cs  Cs0  1  0.49974456  0.24960620  0.49975239  1
  Cs  Cs1  1  0.99973874  0.25032179  0.00023483  1
  Cs  Cs2  1  0.50024276  0.74960466  0.50024447  1
  Cs  Cs3  1  0.00025213  0.75032035  0.99973149  1
  Sr  Sr4  1  0.50004568  0.99994458  0.99972188  1
  Sr  Sr5  1  0.99995464  0.49996994  0.50025887  1
  Ba  Ba6  1  0.00004455  0.99997040  0.49971650  1
  Ba  Ba7  1  0.49995185  0.49994543  0.00026370  1
  I  I8  1  0.49968506  0.24447690  0.99850852  1
  I  I9  1  0.25478412  0.00069480  0.24362111  1
  I  I10  1  0.74353785  0.00056223  0.24537305  1
  I  I11  1  0.99970856  0.25543901  0.50146529  1
  I  I12  1  0.25611848  0.99921268  0.75457054  1
  I  I13  1  0.74559450  0.99938495  0.75620644  1
  I  I14  1  0.50029950  0.75541766  0.00143078  1
  I  I15  1  0.75475269  0.49923187  0.25631315  1
  I  I16  1  0.24350157  0.49937228  0.25464909  1
  I  I17  1  0.00028529  0.74449781  0.49853774  1
  I  I18  1  0.24558636  0.50054747  0.74370415  1
  I  I19  1  0.75611647  0.50070334  0.74548483  1
