# generated using pymatgen
data_Cs2SrSnI6
_symmetry_space_group_name_H-M   'P 1'
_cell_length_a   8.91234865
_cell_length_b   12.60286224
_cell_length_c   8.91258429
_cell_angle_alpha   89.99831484
_cell_angle_beta   90.00003061
_cell_angle_gamma   90.00002935
_symmetry_Int_Tables_number   1
_chemical_formula_structural   Cs2SrSnI6
_chemical_formula_sum   'Cs4 Sr2 Sn2 I12'
_cell_volume   1001.07129103
_cell_formula_units_Z   2
loop_
 _symmetry_equiv_pos_site_id
 _symmetry_equiv_pos_as_xyz
  1  'x, y, z'
loop_
 _atom_site_type_symbol
 _atom_site_label
 _atom_site_symmetry_multiplicity
 _atom_site_fract_x
 _atom_site_fract_y
 _atom_site_fract_z
 _atom_site_occupancy
  Cs  Cs0  1  0.49974759  0.24972897  0.49974231  1
  Cs  Cs1  1  0.99974061  0.25020555  0.00024657  1
  Cs  Cs2  1  0.50024593  0.74972938  0.50023857  1
  Cs  Cs3  1  0.00025376  0.75020509  0.99974186  1
  Sr  Sr4  1  0.49999882  0.99995899  0.99975304  1
  Sr  Sr5  1  0.99999524  0.49996979  0.50022547  1
  Sn  Sn6  1  0.99999786  0.99996712  0.49973791  1
  Sn  Sn7  1  0.49999471  0.49995733  0.00023941  1
  I  I8  1  0.49973313  0.25301966  0.99901865  1
  I  I9  1  0.24662240  0.00044460  0.25237169  1
  I  I10  1  0.75236466  0.00034828  0.25338388  1
  I  I11  1  0.99975168  0.24690694  0.50095895  1
  I  I12  1  0.24742014  0.99946375  0.74643219  1
  I  I13  1  0.75358251  0.99957106  0.74743793  1
  I  I14  1  0.50025997  0.74689889  0.00096861  1
  I  I15  1  0.74661501  0.49946234  0.24761255  1
  I  I16  1  0.25235206  0.49957689  0.24658594  1
  I  I17  1  0.00024251  0.75302649  0.49899902  1
  I  I18  1  0.25359161  0.50034588  0.75252949  1
  I  I19  1  0.74743515  0.50043732  0.75356477  1
