# generated using pymatgen
data_SnGeH12C2(I3N)2
_symmetry_space_group_name_H-M   'P 1'
_cell_length_a   8.47346464
_cell_length_b   12.14278939
_cell_length_c   8.35218068
_cell_angle_alpha   89.37830267
_cell_angle_beta   90.00743744
_cell_angle_gamma   90.00768949
_symmetry_Int_Tables_number   1
_chemical_formula_structural   SnGeH12C2(I3N)2
_chemical_formula_sum   'Sn2 Ge2 H24 C4 I12 N4'
_cell_volume   859.31776517
_cell_formula_units_Z   2
loop_
 _symmetry_equiv_pos_site_id
 _symmetry_equiv_pos_as_xyz
  1  'x, y, z'
loop_
 _atom_site_type_symbol
 _atom_site_label
 _atom_site_symmetry_multiplicity
 _atom_site_fract_x
 _atom_site_fract_y
 _atom_site_fract_z
 _atom_site_occupancy
  C  C0  1  0.39743212  0.25000848  0.41574031  1
  C  C1  1  0.89854118  0.25015893  0.08528839  1
  C  C2  1  0.60256595  0.74999753  0.58427417  1
  C  C3  1  0.10146467  0.74984087  0.91472541  1
  N  N4  1  0.53803323  0.24967358  0.52160535  1
  N  N5  1  0.03852323  0.25035376  0.97863215  1
  N  N6  1  0.46196372  0.75033046  0.47841060  1
  N  N7  1  0.96148397  0.74964313  0.02138347  1
  H  H8  1  0.43711339  0.25039507  0.29102387  1
  H  H9  1  0.32817291  0.17582454  0.44045551  1
  H  H10  1  0.32768016  0.32371953  0.43955243  1
  H  H11  1  0.60696255  0.18068871  0.49897714  1
  H  H12  1  0.60690022  0.31907771  0.49867123  1
  H  H13  1  0.50788799  0.24882993  0.64274366  1
  H  H14  1  0.93900501  0.24981757  0.20977209  1
  H  H15  1  0.82852880  0.17647022  0.06201257  1
  H  H16  1  0.82927212  0.32438051  0.06094762  1
  H  H17  1  0.10738502  0.18091665  0.00125282  1
  H  H18  1  0.10768054  0.31931188  0.00082370  1
  H  H19  1  0.00770546  0.25117522  0.85765929  1
  H  H20  1  0.56288540  0.74961213  0.70899101  1
  H  H21  1  0.67231614  0.67628455  0.56046402  1
  H  H22  1  0.67182562  0.82417972  0.55955613  1
  H  H23  1  0.39303461  0.81931546  0.50103835  1
  H  H24  1  0.39309759  0.68092628  0.50134813  1
  H  H25  1  0.49210766  0.75117372  0.35727220  1
  H  H26  1  0.06099959  0.75018387  0.79024208  1
  H  H27  1  0.17147613  0.82352966  0.93800275  1
  H  H28  1  0.17073527  0.67561942  0.93906243  1
  H  H29  1  0.89262037  0.81907951  0.99876461  1
  H  H30  1  0.89232810  0.68068402  0.99919144  1
  H  H31  1  0.99230336  0.74882148  0.14235573  1
  Ge  Ge32  1  0.49998268  0.00000338  0.00000430  1
  Ge  Ge33  1  0.99997565  0.50001340  0.49993836  1
  Sn  Sn34  1  0.99998441  0.00001446  0.50002218  1
  Sn  Sn35  1  0.50001427  0.50000885  0.99995298  1
  I  I36  1  0.47720503  0.24441448  0.94698870  1
  I  I37  1  0.19326073  0.01000278  0.17855264  1
  I  I38  1  0.67987595  0.01400963  0.31012912  1
  I  I39  1  0.97657666  0.25559050  0.55359381  1
  I  I40  1  0.32013496  0.98599537  0.68989556  1
  I  I41  1  0.80676116  0.98999550  0.82145994  1
  I  I42  1  0.52279965  0.75559582  0.05302738  1
  I  I43  1  0.69326874  0.48988885  0.32138433  1
  I  I44  1  0.17998673  0.48609039  0.18995826  1
  I  I45  1  0.02342039  0.74440206  0.44642330  1
  I  I46  1  0.30675190  0.51011997  0.67864736  1
  I  I47  1  0.81999274  0.51390875  0.81007771  1
