# generated using pymatgen
data_Cs2YTlI6
_symmetry_space_group_name_H-M   'P 1'
_cell_length_a   8.91424310
_cell_length_b   12.60605690
_cell_length_c   8.91429477
_cell_angle_alpha   89.98244933
_cell_angle_beta   90.00002419
_cell_angle_gamma   89.99976142
_symmetry_Int_Tables_number   1
_chemical_formula_structural   Cs2YTlI6
_chemical_formula_sum   'Cs4 Y2 Tl2 I12'
_cell_volume   1001.73006176
_cell_formula_units_Z   2
loop_
 _symmetry_equiv_pos_site_id
 _symmetry_equiv_pos_as_xyz
  1  'x, y, z'
loop_
 _atom_site_type_symbol
 _atom_site_label
 _atom_site_symmetry_multiplicity
 _atom_site_fract_x
 _atom_site_fract_y
 _atom_site_fract_z
 _atom_site_occupancy
  Cs  Cs0  1  0.49972326  0.24966483  0.49970329  1
  Cs  Cs1  1  0.99971674  0.25025764  0.00028409  1
  Cs  Cs2  1  0.50027104  0.74966356  0.50026399  1
  Cs  Cs3  1  0.00027908  0.75025637  0.99971250  1
  Y  Y4  1  0.49999927  0.99995681  0.99977414  1
  Y  Y5  1  0.99999614  0.49996823  0.50020386  1
  Tl  Tl6  1  0.99999889  0.99996990  0.49971012  1
  Tl  Tl7  1  0.49999429  0.49995528  0.00026774  1
  I  I8  1  0.49973702  0.23816911  0.99908823  1
  I  I9  1  0.26143429  0.00030727  0.23767589  1
  I  I10  1  0.73765381  0.00025775  0.23858488  1
  I  I11  1  0.99975298  0.26175474  0.50089181  1
  I  I12  1  0.26211496  0.99958062  0.76124078  1
  I  I13  1  0.73878313  0.99969310  0.76214205  1
  I  I14  1  0.50025726  0.76174464  0.00081554  1
  I  I15  1  0.76142759  0.49961189  0.26230621  1
  I  I16  1  0.23764646  0.49966887  0.26138834  1
  I  I17  1  0.00024110  0.73817898  0.49915476  1
  I  I18  1  0.23878926  0.50023232  0.73782738  1
  I  I19  1  0.76212881  0.50033242  0.73875322  1
