# generated using pymatgen
data_Cs2YAuI6
_symmetry_space_group_name_H-M   'P 1'
_cell_length_a   8.51872746
_cell_length_b   12.04013379
_cell_length_c   8.51870576
_cell_angle_alpha   89.99030561
_cell_angle_beta   89.99988811
_cell_angle_gamma   89.99987071
_symmetry_Int_Tables_number   1
_chemical_formula_structural   Cs2YAuI6
_chemical_formula_sum   'Cs4 Y2 Au2 I12'
_cell_volume   873.73482994
_cell_formula_units_Z   2
loop_
 _symmetry_equiv_pos_site_id
 _symmetry_equiv_pos_as_xyz
  1  'x, y, z'
loop_
 _atom_site_type_symbol
 _atom_site_label
 _atom_site_symmetry_multiplicity
 _atom_site_fract_x
 _atom_site_fract_y
 _atom_site_fract_z
 _atom_site_occupancy
  Cs  Cs0  1  0.49971940  0.24967728  0.49969503  1
  Cs  Cs1  1  0.99971311  0.25024247  0.00029107  1
  Cs  Cs2  1  0.50027424  0.74967617  0.50025633  1
  Cs  Cs3  1  0.00028244  0.75024118  0.99971881  1
  Y  Y4  1  0.49999928  0.99995719  0.99979059  1
  Y  Y5  1  0.99999627  0.49996727  0.50018756  1
  Au  Au6  1  0.99999984  0.99997059  0.49967266  1
  Au  Au7  1  0.49999470  0.49995260  0.00030645  1
  I  I8  1  0.49975503  0.25030356  0.99913666  1
  I  I9  1  0.24945013  0.00029973  0.24968502  1
  I  I10  1  0.74967119  0.00025238  0.25055808  1
  I  I11  1  0.99977042  0.24962091  0.50084351  1
  I  I12  1  0.25015865  0.99959761  0.74930740  1
  I  I13  1  0.75070583  0.99969411  0.75017454  1
  I  I14  1  0.50023917  0.74961390  0.00079878  1
  I  I15  1  0.74944401  0.49962072  0.25029894  1
  I  I16  1  0.24966523  0.49967581  0.24941417  1
  I  I17  1  0.00022368  0.75031040  0.49917211  1
  I  I18  1  0.25071173  0.50023298  0.74979516  1
  I  I19  1  0.75017104  0.50031745  0.75068593  1
