# generated using pymatgen
data_Cs2YInI6
_symmetry_space_group_name_H-M   'P 1'
_cell_length_a   8.87197005
_cell_length_b   12.54763648
_cell_length_c   8.87202738
_cell_angle_alpha   89.98312717
_cell_angle_beta   90.00001886
_cell_angle_gamma   89.99975645
_symmetry_Int_Tables_number   1
_chemical_formula_structural   Cs2YInI6
_chemical_formula_sum   'Cs4 Y2 In2 I12'
_cell_volume   987.65405242
_cell_formula_units_Z   2
loop_
 _symmetry_equiv_pos_site_id
 _symmetry_equiv_pos_as_xyz
  1  'x, y, z'
loop_
 _atom_site_type_symbol
 _atom_site_label
 _atom_site_symmetry_multiplicity
 _atom_site_fract_x
 _atom_site_fract_y
 _atom_site_fract_z
 _atom_site_occupancy
  Cs  Cs0  1  0.49972609  0.24966725  0.49970610  1
  Cs  Cs1  1  0.99971963  0.25025525  0.00028138  1
  Cs  Cs2  1  0.50026821  0.74966603  0.50026023  1
  Cs  Cs3  1  0.00027628  0.75025392  0.99971634  1
  Y  Y4  1  0.49999937  0.99995700  0.99977285  1
  Y  Y5  1  0.99999627  0.49996813  0.50020493  1
  In  In6  1  0.99999913  0.99996973  0.49971042  1
  In  In7  1  0.49999453  0.49995519  0.00026757  1
  I  I8  1  0.49973978  0.23970724  0.99909957  1
  I  I9  1  0.25989229  0.00030550  0.23922033  1
  I  I10  1  0.73919997  0.00025554  0.24012486  1
  I  I11  1  0.99975562  0.26021654  0.50088040  1
  I  I12  1  0.26057381  0.99958401  0.75970257  1
  I  I13  1  0.74031944  0.99969438  0.76059922  1
  I  I14  1  0.50025458  0.76020654  0.00081228  1
  I  I15  1  0.75988583  0.49961378  0.26076189  1
  I  I16  1  0.23919274  0.49967105  0.25984811  1
  I  I17  1  0.00023848  0.73971688  0.49915801  1
  I  I18  1  0.24032550  0.50023118  0.73937034  1
  I  I19  1  0.76058780  0.50032919  0.74029143  1
