# generated using pymatgen
data_Cs2ZrHgI6
_symmetry_space_group_name_H-M   'P 1'
_cell_length_a   8.85041085
_cell_length_b   12.51442633
_cell_length_c   8.85054381
_cell_angle_alpha   89.97140422
_cell_angle_beta   89.99988772
_cell_angle_gamma   89.99959820
_symmetry_Int_Tables_number   1
_chemical_formula_structural   Cs2ZrHgI6
_chemical_formula_sum   'Cs4 Zr2 Hg2 I12'
_cell_volume   980.26676778
_cell_formula_units_Z   2
loop_
 _symmetry_equiv_pos_site_id
 _symmetry_equiv_pos_as_xyz
  1  'x, y, z'
loop_
 _atom_site_type_symbol
 _atom_site_label
 _atom_site_symmetry_multiplicity
 _atom_site_fract_x
 _atom_site_fract_y
 _atom_site_fract_z
 _atom_site_occupancy
  Cs  Cs0  1  0.49973878  0.24975433  0.49970151  1
  Cs  Cs1  1  0.99973346  0.25017799  0.00028446  1
  Cs  Cs2  1  0.50025467  0.74975204  0.50021307  1
  Cs  Cs3  1  0.00026260  0.75017474  0.99976274  1
  Zr  Zr4  1  0.49999885  0.99995565  0.99981298  1
  Zr  Zr5  1  0.99999703  0.49996549  0.50016485  1
  Hg  Hg6  1  0.99999933  0.99996950  0.49969997  1
  Hg  Hg7  1  0.49999435  0.49995428  0.00027795  1
  I  I8  1  0.49980004  0.22915537  0.99907586  1
  I  I9  1  0.27037626  0.00025907  0.22875105  1
  I  I10  1  0.72874959  0.00028349  0.22962169  1
  I  I11  1  0.99981397  0.27076385  0.50090234  1
  I  I12  1  0.27106896  0.99955701  0.77021001  1
  I  I13  1  0.72979128  0.99973120  0.77107356  1
  I  I14  1  0.50019595  0.77075721  0.00072510  1
  I  I15  1  0.77036588  0.49965712  0.27123091  1
  I  I16  1  0.22874606  0.49964018  0.27035030  1
  I  I17  1  0.00017925  0.72916592  0.49924832  1
  I  I18  1  0.22980056  0.50019382  0.72889806  1
  I  I19  1  0.77107850  0.50035605  0.72978407  1
