# generated using pymatgen
data_Cs2InRhI6
_symmetry_space_group_name_H-M   'P 1'
_cell_length_a   8.31943716
_cell_length_b   11.75473681
_cell_length_c   8.31945415
_cell_angle_alpha   89.99021689
_cell_angle_beta   89.99999319
_cell_angle_gamma   89.99985717
_symmetry_Int_Tables_number   1
_chemical_formula_structural   Cs2InRhI6
_chemical_formula_sum   'Cs4 In2 Rh2 I12'
_cell_volume   813.58265651
_cell_formula_units_Z   2
loop_
 _symmetry_equiv_pos_site_id
 _symmetry_equiv_pos_as_xyz
  1  'x, y, z'
loop_
 _atom_site_type_symbol
 _atom_site_label
 _atom_site_symmetry_multiplicity
 _atom_site_fract_x
 _atom_site_fract_y
 _atom_site_fract_z
 _atom_site_occupancy
  Cs  Cs0  1  0.49977363  0.24973957  0.49979095  1
  Cs  Cs1  1  0.99976842  0.25018454  0.00019492  1
  Cs  Cs2  1  0.50022119  0.74973557  0.50021586  1
  Cs  Cs3  1  0.00022667  0.75018008  0.99976121  1
  Rh  Rh4  1  0.49999773  0.99995942  0.99988233  1
  Rh  Rh5  1  0.99999698  0.49996437  0.50009685  1
  In  In6  1  0.99999829  0.99996670  0.49977325  1
  In  In7  1  0.49999488  0.49995734  0.00020443  1
  I  I8  1  0.49978223  0.23228775  0.99920390  1
  I  I9  1  0.26770921  0.00023121  0.23149841  1
  I  I10  1  0.73152974  0.00022574  0.23225449  1
  I  I11  1  0.99979510  0.26763993  0.50077561  1
  I  I12  1  0.26836733  0.99964470  0.76758552  1
  I  I13  1  0.73238134  0.99973859  0.76833872  1
  I  I14  1  0.50021282  0.76762988  0.00065909  1
  I  I15  1  0.76770808  0.49968911  0.26849000  1
  I  I16  1  0.23151875  0.49970127  0.26772356  1
  I  I17  1  0.00019855  0.73228893  0.49931372  1
  I  I18  1  0.23238175  0.50018782  0.73162764  1
  I  I19  1  0.76838270  0.50027182  0.73239833  1
