# generated using pymatgen
data_CdGeH12C2(I3N)2
_symmetry_space_group_name_H-M   'P 1'
_cell_length_a   8.30706091
_cell_length_b   11.98184929
_cell_length_c   8.23802356
_cell_angle_alpha   89.76250826
_cell_angle_beta   90.01022430
_cell_angle_gamma   90.00279843
_symmetry_Int_Tables_number   1
_chemical_formula_structural   CdGeH12C2(I3N)2
_chemical_formula_sum   'Cd2 Ge2 H24 C4 I12 N4'
_cell_volume   819.95598301
_cell_formula_units_Z   2
loop_
 _symmetry_equiv_pos_site_id
 _symmetry_equiv_pos_as_xyz
  1  'x, y, z'
loop_
 _atom_site_type_symbol
 _atom_site_label
 _atom_site_symmetry_multiplicity
 _atom_site_fract_x
 _atom_site_fract_y
 _atom_site_fract_z
 _atom_site_occupancy
  C  C0  1  0.39700773  0.25017730  0.41451563  1
  C  C1  1  0.89811243  0.24999319  0.08646467  1
  C  C2  1  0.60299006  0.74982706  0.58550048  1
  C  C3  1  0.10189464  0.75000809  0.91354768  1
  N  N4  1  0.53955704  0.24990567  0.52242424  1
  N  N5  1  0.04002864  0.25011820  0.97777085  1
  N  N6  1  0.46043966  0.75009693  0.47759340  1
  N  N7  1  0.95997917  0.74988004  0.02224248  1
  H  H8  1  0.43801567  0.25057162  0.28823231  1
  H  H9  1  0.32594621  0.17519642  0.43880140  1
  H  H10  1  0.32595263  0.32497131  0.43885851  1
  H  H11  1  0.60989009  0.17982003  0.49989892  1
  H  H12  1  0.61008892  0.31996804  0.49940052  1
  H  H13  1  0.50839875  0.24980266  0.64524861  1
  H  H14  1  0.93989201  0.24965561  0.21250318  1
  H  H15  1  0.82681782  0.17521045  0.06265987  1
  H  H16  1  0.82700987  0.32500310  0.06252241  1
  H  H17  1  0.11056951  0.18002300  0.00049318  1
  H  H18  1  0.11057601  0.32017721  0.99988350  1
  H  H19  1  0.00819255  0.25020510  0.85511696  1
  H  H20  1  0.56198352  0.74943540  0.71178425  1
  H  H21  1  0.67404436  0.67503232  0.56115999  1
  H  H22  1  0.67405179  0.82480727  0.56121107  1
  H  H23  1  0.39010668  0.82018273  0.50011725  1
  H  H24  1  0.38990850  0.68003442  0.50062054  1
  H  H25  1  0.49159679  0.75019835  0.35476855  1
  H  H26  1  0.06011426  0.75034753  0.78750941  1
  H  H27  1  0.17318882  0.82479066  0.93735517  1
  H  H28  1  0.17299807  0.67499801  0.93748618  1
  H  H29  1  0.88943531  0.81997404  0.99952198  1
  H  H30  1  0.88943414  0.67981998  0.00012922  1
  H  H31  1  0.99181590  0.74979310  0.14489620  1
  Ge  Ge32  1  0.49999360  0.00001502  0.00000869  1
  Ge  Ge33  1  0.99997566  0.50000472  0.49997564  1
  Cd  Cd34  1  0.99999676  0.00000723  0.50001582  1
  Cd  Cd35  1  0.49999881  0.50002292  0.99997031  1
  I  I36  1  0.47684693  0.24835214  0.94850962  1
  I  I37  1  0.18747080  0.00925825  0.18576873  1
  I  I38  1  0.68725754  0.01029168  0.31462295  1
  I  I39  1  0.97615511  0.25163887  0.55205319  1
  I  I40  1  0.31274299  0.98971181  0.68538960  1
  I  I41  1  0.81253165  0.99074122  0.81425082  1
  I  I42  1  0.52316076  0.75164833  0.05151297  1
  I  I43  1  0.68741562  0.49067419  0.31417375  1
  I  I44  1  0.18731197  0.48979350  0.18542258  1
  I  I45  1  0.02384146  0.74836458  0.44795919  1
  I  I46  1  0.31258553  0.50932464  0.68583420  1
  I  I47  1  0.81270101  0.51020433  0.81458993  1
