# generated using pymatgen
data_Cs2HfPdI6
_symmetry_space_group_name_H-M   'P 1'
_cell_length_a   8.26801924
_cell_length_b   11.68185206
_cell_length_c   8.26804208
_cell_angle_alpha   90.01040750
_cell_angle_beta   89.99990328
_cell_angle_gamma   90.00011333
_symmetry_Int_Tables_number   1
_chemical_formula_structural   Cs2HfPdI6
_chemical_formula_sum   'Cs4 Hf2 Pd2 I12'
_cell_volume   798.57526096
_cell_formula_units_Z   2
loop_
 _symmetry_equiv_pos_site_id
 _symmetry_equiv_pos_as_xyz
  1  'x, y, z'
loop_
 _atom_site_type_symbol
 _atom_site_label
 _atom_site_symmetry_multiplicity
 _atom_site_fract_x
 _atom_site_fract_y
 _atom_site_fract_z
 _atom_site_occupancy
  Cs  Cs0  1  0.49969360  0.24960739  0.49968415  1
  Cs  Cs1  1  0.99968627  0.25030849  0.00030305  1
  Cs  Cs2  1  0.50030062  0.74960646  0.50031455  1
  Cs  Cs3  1  0.00030924  0.75030764  0.99966077  1
  Pd  Pd4  1  0.49999857  0.99995263  0.99971143  1
  Pd  Pd5  1  0.99999436  0.49996926  0.50026753  1
  Hf  Hf6  1  0.99999919  0.99996876  0.49974943  1
  Hf  Hf7  1  0.49999571  0.49995580  0.00022895  1
  I  I8  1  0.49973504  0.25396026  0.99918270  1
  I  I9  1  0.24559379  0.00030015  0.25358799  1
  I  I10  1  0.75356000  0.00020741  0.25443151  1
  I  I11  1  0.99975122  0.24597412  0.50079791  1
  I  I12  1  0.24620860  0.99963500  0.74540557  1
  I  I13  1  0.75462442  0.99970661  0.74624107  1
  I  I14  1  0.50025853  0.74595799  0.00082427  1
  I  I15  1  0.74558540  0.49962241  0.24639096  1
  I  I16  1  0.25355538  0.49972152  0.24553984  1
  I  I17  1  0.00024386  0.75396173  0.49914525  1
  I  I18  1  0.25463123  0.50022030  0.75373122  1
  I  I19  1  0.74622035  0.50028040  0.75459064  1
