# generated using pymatgen
data_Cs2BaCdI6
_symmetry_space_group_name_H-M   'P 1'
_cell_length_a   8.91367359
_cell_length_b   12.59019788
_cell_length_c   8.91381860
_cell_angle_alpha   89.97512587
_cell_angle_beta   90.00019255
_cell_angle_gamma   89.99954218
_symmetry_Int_Tables_number   1
_chemical_formula_structural   Cs2BaCdI6
_chemical_formula_sum   'Cs4 Ba2 Cd2 I12'
_cell_volume   1000.35243474
_cell_formula_units_Z   2
loop_
 _symmetry_equiv_pos_site_id
 _symmetry_equiv_pos_as_xyz
  1  'x, y, z'
loop_
 _atom_site_type_symbol
 _atom_site_label
 _atom_site_symmetry_multiplicity
 _atom_site_fract_x
 _atom_site_fract_y
 _atom_site_fract_z
 _atom_site_occupancy
  Cs  Cs0  1  0.49974195  0.24967708  0.49978185  1
  Cs  Cs1  1  0.99972730  0.25023589  0.00021046  1
  Cs  Cs2  1  0.50024236  0.74967997  0.50023424  1
  Cs  Cs3  1  0.00025270  0.75023185  0.99974237  1
  Cd  Cd4  1  0.50003507  0.99993625  0.99965401  1
  Cd  Cd5  1  0.99995522  0.49996103  0.50030627  1
  Ba  Ba6  1  0.00003448  0.99996464  0.49968439  1
  Ba  Ba7  1  0.49996181  0.49994230  0.00027760  1
  I  I8  1  0.49970456  0.23613837  0.99880137  1
  I  I9  1  0.26334195  0.00044493  0.23572145  1
  I  I10  1  0.73574116  0.00041885  0.23668746  1
  I  I11  1  0.99971374  0.26377675  0.50118680  1
  I  I12  1  0.26404435  0.99946120  0.76309521  1
  I  I13  1  0.73694543  0.99954841  0.76402978  1
  I  I14  1  0.50028063  0.76376087  0.00108333  1
  I  I15  1  0.76330616  0.49951327  0.26423109  1
  I  I16  1  0.23572093  0.49948766  0.26331223  1
  I  I17  1  0.00027554  0.73615544  0.49889920  1
  I  I18  1  0.23689110  0.50038647  0.73593360  1
  I  I19  1  0.76402893  0.50050309  0.73691608  1
