# generated using pymatgen
data_Cs2CdSnI6
_symmetry_space_group_name_H-M   'P 1'
_cell_length_a   8.61830763
_cell_length_b   12.18256243
_cell_length_c   8.61831226
_cell_angle_alpha   89.99908146
_cell_angle_beta   90.00001512
_cell_angle_gamma   89.99997945
_symmetry_Int_Tables_number   1
_chemical_formula_structural   Cs2CdSnI6
_chemical_formula_sum   'Cs4 Cd2 Sn2 I12'
_cell_volume   904.86306929
_cell_formula_units_Z   2
loop_
 _symmetry_equiv_pos_site_id
 _symmetry_equiv_pos_as_xyz
  1  'x, y, z'
loop_
 _atom_site_type_symbol
 _atom_site_label
 _atom_site_symmetry_multiplicity
 _atom_site_fract_x
 _atom_site_fract_y
 _atom_site_fract_z
 _atom_site_occupancy
  Cs  Cs0  1  0.49971699  0.24965960  0.49971394  1
  Cs  Cs1  1  0.99971032  0.25025883  0.00027240  1
  Cs  Cs2  1  0.50027730  0.74965836  0.50028178  1
  Cs  Cs3  1  0.00028515  0.75025746  0.99969348  1
  Cd  Cd4  1  0.49999963  0.99995403  0.99971306  1
  Cd  Cd5  1  0.99999519  0.49996938  0.50026565  1
  Sn  Sn6  1  0.99999868  0.99996923  0.49973540  1
  Sn  Sn7  1  0.49999464  0.49995604  0.00024298  1
  I  I8  1  0.49974485  0.24549290  0.99915801  1
  I  I9  1  0.25401266  0.00030115  0.24514080  1
  I  I10  1  0.74512083  0.00023572  0.24600350  1
  I  I11  1  0.99976052  0.25443225  0.50082248  1
  I  I12  1  0.25469518  0.99961280  0.75386299  1
  I  I13  1  0.74615737  0.99969645  0.75471913  1
  I  I14  1  0.50024929  0.75442488  0.00081072  1
  I  I15  1  0.75400634  0.49961996  0.25484199  1
  I  I16  1  0.24511400  0.49969266  0.25396937  1
  I  I17  1  0.00023425  0.74550000  0.49915967  1
  I  I18  1  0.24616350  0.50023040  0.74525127  1
  I  I19  1  0.75470869  0.50030223  0.74613019  1
