# generated using pymatgen
data_Cs2SnPbI6
_symmetry_space_group_name_H-M   'P 1'
_cell_length_a   8.84104540
_cell_length_b   12.50247123
_cell_length_c   8.84110413
_cell_angle_alpha   89.99847469
_cell_angle_beta   90.00002138
_cell_angle_gamma   89.99996320
_symmetry_Int_Tables_number   1
_chemical_formula_structural   Cs2SnPbI6
_chemical_formula_sum   'Cs4 Sn2 Pb2 I12'
_cell_volume   977.25069937
_cell_formula_units_Z   2
loop_
 _symmetry_equiv_pos_site_id
 _symmetry_equiv_pos_as_xyz
  1  'x, y, z'
loop_
 _atom_site_type_symbol
 _atom_site_label
 _atom_site_symmetry_multiplicity
 _atom_site_fract_x
 _atom_site_fract_y
 _atom_site_fract_z
 _atom_site_occupancy
  Cs  Cs0  1  0.49973384  0.24968023  0.49972369  1
  Cs  Cs1  1  0.99972745  0.25024342  0.00026363  1
  Cs  Cs2  1  0.50026069  0.74967905  0.50025985  1
  Cs  Cs3  1  0.00026831  0.75024210  0.99971670  1
  Sn  Sn4  1  0.49999952  0.99995535  0.99974354  1
  Sn  Sn5  1  0.99999565  0.49996808  0.50023472  1
  Pb  Pb6  1  0.99999851  0.99996824  0.49973939  1
  Pb  Pb7  1  0.49999470  0.49995536  0.00023870  1
  I  I8  1  0.49973355  0.24756204  0.99912565  1
  I  I9  1  0.25203752  0.00031654  0.24708521  1
  I  I10  1  0.74706054  0.00024470  0.24798381  1
  I  I11  1  0.99974982  0.25236253  0.50085488  1
  I  I12  1  0.25271598  0.99959633  0.75185354  1
  I  I13  1  0.74817222  0.99968384  0.75274492  1
  I  I14  1  0.50026031  0.75235316  0.00083891  1
  I  I15  1  0.75203073  0.49960265  0.25289691  1
  I  I16  1  0.24705335  0.49968202  0.25198904  1
  I  I17  1  0.00024473  0.74757121  0.49913080  1
  I  I18  1  0.24817803  0.50024116  0.74722444  1
  I  I19  1  0.75272994  0.50031632  0.74814049  1
