# generated using pymatgen
data_SrGeH12C2(I3N)2
_symmetry_space_group_name_H-M   'P 1'
_cell_length_a   8.53212622
_cell_length_b   12.34244884
_cell_length_c   8.40532723
_cell_angle_alpha   89.07639748
_cell_angle_beta   90.00739647
_cell_angle_gamma   90.00387317
_symmetry_Int_Tables_number   1
_chemical_formula_structural   SrGeH12C2(I3N)2
_chemical_formula_sum   'Sr2 Ge2 H24 C4 I12 N4'
_cell_volume   885.02757080
_cell_formula_units_Z   2
loop_
 _symmetry_equiv_pos_site_id
 _symmetry_equiv_pos_as_xyz
  1  'x, y, z'
loop_
 _atom_site_type_symbol
 _atom_site_label
 _atom_site_symmetry_multiplicity
 _atom_site_fract_x
 _atom_site_fract_y
 _atom_site_fract_z
 _atom_site_occupancy
  C  C0  1  0.39585406  0.25029105  0.41511111  1
  C  C1  1  0.89709183  0.24990923  0.08608490  1
  C  C2  1  0.60414292  0.74971203  0.58490398  1
  C  C3  1  0.10291565  0.75009135  0.91392806  1
  N  N4  1  0.53537500  0.24979371  0.52047332  1
  N  N5  1  0.03592630  0.25027250  0.97983837  1
  N  N6  1  0.46462093  0.75020991  0.47954340  1
  N  N7  1  0.96408236  0.74972466  0.02017618  1
  H  H8  1  0.43542318  0.25054535  0.29116087  1
  H  H9  1  0.32725974  0.17712445  0.43986237  1
  H  H10  1  0.32627664  0.32273567  0.43836884  1
  H  H11  1  0.60362532  0.18182298  0.49798938  1
  H  H12  1  0.60387915  0.31823048  0.49759542  1
  H  H13  1  0.50542110  0.24859602  0.64092631  1
  H  H14  1  0.93750704  0.24970739  0.20975666  1
  H  H15  1  0.82722529  0.17750319  0.06339538  1
  H  H16  1  0.82847749  0.32313832  0.06174527  1
  H  H17  1  0.10443471  0.18177761  0.00238116  1
  H  H18  1  0.10442534  0.31818826  0.00185043  1
  H  H19  1  0.00525483  0.25143116  0.85956497  1
  H  H20  1  0.56457576  0.74945933  0.70885457  1
  H  H21  1  0.67371894  0.67726736  0.56164626  1
  H  H22  1  0.67273880  0.82287872  0.56015106  1
  H  H23  1  0.39637080  0.81818084  0.50202827  1
  H  H24  1  0.39611750  0.68177303  0.50242171  1
  H  H25  1  0.49457394  0.75140812  0.35909023  1
  H  H26  1  0.06249929  0.75029562  0.79025695  1
  H  H27  1  0.17278207  0.82249692  0.93662106  1
  H  H28  1  0.17153012  0.67686197  0.93826354  1
  H  H29  1  0.89557119  0.81821877  0.99763629  1
  H  H30  1  0.89558530  0.68180805  0.99816323  1
  H  H31  1  0.99475486  0.74856528  0.14044972  1
  Ge  Ge32  1  0.50000225  0.00000706  0.00000906  1
  Ge  Ge33  1  0.99999011  0.50000199  0.49999362  1
  Sr  Sr34  1  0.00000211  0.00000246  0.50001034  1
  Sr  Sr35  1  0.49999601  0.50001022  0.99999140  1
  I  I36  1  0.47340152  0.24099808  0.94046767  1
  I  I37  1  0.18937283  0.01169264  0.16683290  1
  I  I38  1  0.66804164  0.01786450  0.31426191  1
  I  I39  1  0.97281059  0.25900915  0.56010987  1
  I  I40  1  0.33196552  0.98214410  0.68575444  1
  I  I41  1  0.81063414  0.98830820  0.83318651  1
  I  I42  1  0.52660261  0.75901647  0.05954971  1
  I  I43  1  0.68936864  0.48811919  0.33308286  1
  I  I44  1  0.16816677  0.48231340  0.18579742  1
  I  I45  1  0.02718254  0.74099567  0.43990218  1
  I  I46  1  0.31061802  0.51188375  0.66690810  1
  I  I47  1  0.83183099  0.51769208  0.81419931  1
