# generated using pymatgen
data_Cs2TlSbI6
_symmetry_space_group_name_H-M   'P 1'
_cell_length_a   8.84369057
_cell_length_b   12.50535224
_cell_length_c   8.84375338
_cell_angle_alpha   89.98751962
_cell_angle_beta   90.00000436
_cell_angle_gamma   89.99981698
_symmetry_Int_Tables_number   1
_chemical_formula_structural   Cs2TlSbI6
_chemical_formula_sum   'Cs4 Tl2 Sb2 I12'
_cell_volume   978.06131299
_cell_formula_units_Z   2
loop_
 _symmetry_equiv_pos_site_id
 _symmetry_equiv_pos_as_xyz
  1  'x, y, z'
loop_
 _atom_site_type_symbol
 _atom_site_label
 _atom_site_symmetry_multiplicity
 _atom_site_fract_x
 _atom_site_fract_y
 _atom_site_fract_z
 _atom_site_occupancy
  Cs  Cs0  1  0.49973060  0.24967689  0.49971711  1
  Cs  Cs1  1  0.99972416  0.25024659  0.00027047  1
  Cs  Cs2  1  0.50026390  0.74967558  0.50025854  1
  Cs  Cs3  1  0.00027161  0.75024545  0.99971817  1
  Sb  Sb4  1  0.49999889  0.99995651  0.99979272  1
  Sb  Sb5  1  0.99999626  0.49996698  0.50018531  1
  Tl  Tl6  1  0.99999914  0.99996933  0.49971834  1
  Tl  Tl7  1  0.49999446  0.49995547  0.00025968  1
  I  I8  1  0.49974156  0.24066954  0.99911306  1
  I  I9  1  0.25899229  0.00029768  0.24013135  1
  I  I10  1  0.74011673  0.00025055  0.24101945  1
  I  I11  1  0.99975696  0.25925450  0.50086695  1
  I  I12  1  0.25965929  0.99959252  0.75879814  1
  I  I13  1  0.74121809  0.99969822  0.75967836  1
  I  I14  1  0.50025297  0.75924454  0.00079653  1
  I  I15  1  0.75898544  0.49962116  0.25985069  1
  I  I16  1  0.24010951  0.49967576  0.25895357  1
  I  I17  1  0.00023703  0.74067937  0.49917371  1
  I  I18  1  0.24122384  0.50022702  0.74029116  1
  I  I19  1  0.75967264  0.50032066  0.74119550  1
