# generated using pymatgen
data_Cs2BaPbI6
_symmetry_space_group_name_H-M   'P 1'
_cell_length_a   9.16864533
_cell_length_b   12.96681576
_cell_length_c   9.16683126
_cell_angle_alpha   90.00835382
_cell_angle_beta   89.99999591
_cell_angle_gamma   89.99912597
_symmetry_Int_Tables_number   1
_chemical_formula_structural   Cs2BaPbI6
_chemical_formula_sum   'Cs4 Ba2 Pb2 I12'
_cell_volume   1089.82745877
_cell_formula_units_Z   2
loop_
 _symmetry_equiv_pos_site_id
 _symmetry_equiv_pos_as_xyz
  1  'x, y, z'
loop_
 _atom_site_type_symbol
 _atom_site_label
 _atom_site_symmetry_multiplicity
 _atom_site_fract_x
 _atom_site_fract_y
 _atom_site_fract_z
 _atom_site_occupancy
  Cs  Cs0  1  0.49968815  0.24955448  0.49966789  1
  Cs  Cs1  1  0.99968978  0.25037198  0.00031779  1
  Cs  Cs2  1  0.50030497  0.74955162  0.50029043  1
  Cs  Cs3  1  0.00032064  0.75037238  0.99968599  1
  Ba  Ba4  1  0.50005145  0.99994270  0.99968288  1
  Ba  Ba5  1  0.99994806  0.49997201  0.50030031  1
  Pb  Pb6  1  0.00004624  0.99997250  0.49970959  1
  Pb  Pb7  1  0.49995043  0.49994715  0.00027296  1
  I  I8  1  0.49965323  0.25639573  0.99868322  1
  I  I9  1  0.24305901  0.00059395  0.25561070  1
  I  I10  1  0.75552671  0.00045495  0.25709265  1
  I  I11  1  0.99969636  0.24351661  0.50130445  1
  I  I12  1  0.24410706  0.99932572  0.74282570  1
  I  I13  1  0.75732757  0.99946953  0.74418333  1
  I  I14  1  0.50032738  0.74349425  0.00133098  1
  I  I15  1  0.74303334  0.49932340  0.24431426  1
  I  I16  1  0.25546849  0.49948068  0.24292968  1
  I  I17  1  0.00033968  0.75642032  0.49863642  1
  I  I18  1  0.25731569  0.50047880  0.75572689  1
  I  I19  1  0.74409115  0.50058558  0.75722268  1
