# generated using pymatgen
data_Cs2BaHgI6
_symmetry_space_group_name_H-M   'P 1'
_cell_length_a   8.94486422
_cell_length_b   12.64743832
_cell_length_c   8.94497044
_cell_angle_alpha   89.99690144
_cell_angle_beta   90.00003333
_cell_angle_gamma   89.99999800
_symmetry_Int_Tables_number   1
_chemical_formula_structural   Cs2BaHgI6
_chemical_formula_sum   'Cs4 Ba2 Hg2 I12'
_cell_volume   1011.94109141
_cell_formula_units_Z   2
loop_
 _symmetry_equiv_pos_site_id
 _symmetry_equiv_pos_as_xyz
  1  'x, y, z'
loop_
 _atom_site_type_symbol
 _atom_site_label
 _atom_site_symmetry_multiplicity
 _atom_site_fract_x
 _atom_site_fract_y
 _atom_site_fract_z
 _atom_site_occupancy
  Cs  Cs0  1  0.49972613  0.24970548  0.49973153  1
  Cs  Cs1  1  0.99972631  0.25022599  0.00025532  1
  Cs  Cs2  1  0.50026043  0.74970204  0.50022581  1
  Cs  Cs3  1  0.00027348  0.75022523  0.99975158  1
  Ba  Ba4  1  0.50003786  0.99994927  0.99976487  1
  Ba  Ba5  1  0.99996047  0.49997014  0.50021759  1
  Hg  Hg6  1  0.00004371  0.99997278  0.49971072  1
  Hg  Hg7  1  0.49995060  0.49994947  0.00027036  1
  I  I8  1  0.49967956  0.26239236  0.99871305  1
  I  I9  1  0.23701226  0.00068534  0.26143675  1
  I  I10  1  0.76137700  0.00051415  0.26309848  1
  I  I11  1  0.99971854  0.23752660  0.50126372  1
  I  I12  1  0.23837936  0.99927674  0.73685965  1
  I  I13  1  0.76325522  0.99936858  0.73844230  1
  I  I14  1  0.50029444  0.73751144  0.00135326  1
  I  I15  1  0.73698277  0.49923730  0.23851655  1
  I  I16  1  0.26134370  0.49941662  0.23690314  1
  I  I17  1  0.00029318  0.76240723  0.49861122  1
  I  I18  1  0.26324930  0.50056064  0.76148622  1
  I  I19  1  0.73838106  0.50062695  0.76317668  1
