# generated using pymatgen
data_Cs2BaOsI6
_symmetry_space_group_name_H-M   'P 1'
_cell_length_a   8.53777471
_cell_length_b   12.07388515
_cell_length_c   8.53777921
_cell_angle_alpha   90.01314405
_cell_angle_beta   90.00001971
_cell_angle_gamma   90.00017509
_symmetry_Int_Tables_number   1
_chemical_formula_structural   Cs2BaOsI6
_chemical_formula_sum   'Cs4 Ba2 Os2 I12'
_cell_volume   880.10935888
_cell_formula_units_Z   2
loop_
 _symmetry_equiv_pos_site_id
 _symmetry_equiv_pos_as_xyz
  1  'x, y, z'
loop_
 _atom_site_type_symbol
 _atom_site_label
 _atom_site_symmetry_multiplicity
 _atom_site_fract_x
 _atom_site_fract_y
 _atom_site_fract_z
 _atom_site_occupancy
  Cs  Cs0  1  0.49972093  0.24966759  0.49969805  1
  Cs  Cs1  1  0.99971482  0.25025243  0.00028839  1
  Cs  Cs2  1  0.50027299  0.74966634  0.50025321  1
  Cs  Cs3  1  0.00028111  0.75025100  0.99972254  1
  Ba  Ba4  1  0.49999948  0.99995803  0.99975965  1
  Ba  Ba5  1  0.99999528  0.49996899  0.50021824  1
  Os  Os6  1  0.99999764  0.99996554  0.49985258  1
  Os  Os7  1  0.49999637  0.49995818  0.00012575  1
  I  I8  1  0.49974766  0.27508889  0.99921075  1
  I  I9  1  0.22455044  0.00031531  0.27456768  1
  I  I10  1  0.77457733  0.00022784  0.27543606  1
  I  I11  1  0.99976434  0.22483593  0.50077057  1
  I  I12  1  0.22524142  0.99963008  0.72437203  1
  I  I13  1  0.77561782  0.99967706  0.72523443  1
  I  I14  1  0.50024565  0.72482639  0.00088191  1
  I  I15  1  0.72454311  0.49960495  0.22541477  1
  I  I16  1  0.27457041  0.49969998  0.22453617  1
  I  I17  1  0.00023124  0.77509751  0.49908850  1
  I  I18  1  0.27562388  0.50024844  0.77473599  1
  I  I19  1  0.72525343  0.50028383  0.77562155  1
