# generated using pymatgen
data_Cs2HfHgI6
_symmetry_space_group_name_H-M   'P 1'
_cell_length_a   8.85110053
_cell_length_b   12.51703184
_cell_length_c   8.85116591
_cell_angle_alpha   89.96921761
_cell_angle_beta   89.99990551
_cell_angle_gamma   89.99951263
_symmetry_Int_Tables_number   1
_chemical_formula_structural   Cs2HfHgI6
_chemical_formula_sum   'Cs4 Hf2 Hg2 I12'
_cell_volume   980.61616635
_cell_formula_units_Z   2
loop_
 _symmetry_equiv_pos_site_id
 _symmetry_equiv_pos_as_xyz
  1  'x, y, z'
loop_
 _atom_site_type_symbol
 _atom_site_label
 _atom_site_symmetry_multiplicity
 _atom_site_fract_x
 _atom_site_fract_y
 _atom_site_fract_z
 _atom_site_occupancy
  Cs  Cs0  1  0.49973903  0.24974427  0.49970052  1
  Cs  Cs1  1  0.99973349  0.25018482  0.00028537  1
  Cs  Cs2  1  0.50025433  0.74974384  0.50021907  1
  Cs  Cs3  1  0.00026237  0.75018330  0.99975662  1
  Hf  Hf4  1  0.49999830  0.99995585  0.99983195  1
  Hf  Hf5  1  0.99999696  0.49996498  0.50014643  1
  Hg  Hg6  1  0.99999924  0.99996966  0.49971425  1
  Hg  Hg7  1  0.49999467  0.49995473  0.00026353  1
  I  I8  1  0.49980564  0.22722098  0.99908625  1
  I  I9  1  0.27229355  0.00024647  0.22682761  1
  I  I10  1  0.72684844  0.00027914  0.22768180  1
  I  I11  1  0.99981929  0.27270068  0.50089234  1
  I  I12  1  0.27300752  0.99956985  0.77214150  1
  I  I13  1  0.72783731  0.99973630  0.77298981  1
  I  I14  1  0.50019032  0.77269231  0.00070486  1
  I  I15  1  0.77228600  0.49967032  0.27315702  1
  I  I16  1  0.22684216  0.49964501  0.27229208  1
  I  I17  1  0.00017370  0.72722857  0.49926909  1
  I  I18  1  0.22784399  0.50018907  0.72697968  1
  I  I19  1  0.77301905  0.50034419  0.72784905  1
