# generated using pymatgen
data_Cs2TlBiI6
_symmetry_space_group_name_H-M   'P 1'
_cell_length_a   8.92822684
_cell_length_b   12.62300365
_cell_length_c   8.92827737
_cell_angle_alpha   90.01283580
_cell_angle_beta   90.00000293
_cell_angle_gamma   90.00014662
_symmetry_Int_Tables_number   1
_chemical_formula_structural   Cs2TlBiI6
_chemical_formula_sum   'Cs4 Tl2 Bi2 I12'
_cell_volume   1006.22611962
_cell_formula_units_Z   2
loop_
 _symmetry_equiv_pos_site_id
 _symmetry_equiv_pos_as_xyz
  1  'x, y, z'
loop_
 _atom_site_type_symbol
 _atom_site_label
 _atom_site_symmetry_multiplicity
 _atom_site_fract_x
 _atom_site_fract_y
 _atom_site_fract_z
 _atom_site_occupancy
  Cs  Cs0  1  0.49973867  0.24969183  0.49973362  1
  Cs  Cs1  1  0.99973243  0.25023308  0.00025396  1
  Cs  Cs2  1  0.50025600  0.74969072  0.50025708  1
  Cs  Cs3  1  0.00026331  0.75023190  0.99972002  1
  Tl  Tl4  1  0.49999990  0.99995502  0.99971821  1
  Tl  Tl5  1  0.99999524  0.49996898  0.50025933  1
  Bi  Bi6  1  0.99999798  0.99996705  0.49978896  1
  Bi  Bi7  1  0.49999525  0.49995648  0.00018882  1
  I  I8  1  0.49973958  0.25751027  0.99916440  1
  I  I9  1  0.24206965  0.00033202  0.25704273  1
  I  I10  1  0.75702559  0.00023368  0.25794389  1
  I  I11  1  0.99975629  0.24241279  0.50081651  1
  I  I12  1  0.24275123  0.99961258  0.74187695  1
  I  I13  1  0.75814000  0.99966716  0.74277149  1
  I  I14  1  0.50025383  0.74240273  0.00087819  1
  I  I15  1  0.74206263  0.49958723  0.24293966  1
  I  I16  1  0.25701839  0.49969341  0.24202911  1
  I  I17  1  0.00023883  0.75752012  0.49909119  1
  I  I18  1  0.25814590  0.50025756  0.75719788  1
  I  I19  1  0.74276469  0.50029972  0.75811682  1
