# generated using pymatgen
data_CsBeBr3
_symmetry_space_group_name_H-M   'P 1'
_cell_length_a   7.60268017
_cell_length_b   11.13804982
_cell_length_c   8.18202876
_cell_angle_alpha   89.99998671
_cell_angle_beta   90.00215038
_cell_angle_gamma   90.00002702
_symmetry_Int_Tables_number   1
_chemical_formula_structural   CsBeBr3
_chemical_formula_sum   'Cs4 Be4 Br12'
_cell_volume   692.84626193
_cell_formula_units_Z   4
loop_
 _symmetry_equiv_pos_site_id
 _symmetry_equiv_pos_as_xyz
  1  'x, y, z'
loop_
 _atom_site_type_symbol
 _atom_site_label
 _atom_site_symmetry_multiplicity
 _atom_site_fract_x
 _atom_site_fract_y
 _atom_site_fract_z
 _atom_site_occupancy
  Cs  Cs0  1  0.50002362  0.24409532  0.47030712  1
  Cs  Cs1  1  0.00000423  0.24414838  0.97041562  1
  Cs  Cs2  1  0.49997357  0.74409382  0.52967544  1
  Cs  Cs3  1  0.99999016  0.74414795  0.02956800  1
  Be  Be4  1  0.49996430  0.05765083  0.85702336  1
  Be  Be5  1  0.99996400  0.55746185  0.64309471  1
  Be  Be6  1  0.00003455  0.05746142  0.35688421  1
  Be  Be7  1  0.50002534  0.55765148  0.14295314  1
  Br  Br8  1  0.50001413  0.22345331  0.97500848  1
  Br  Br9  1  0.23671799  0.98722061  0.27090901  1
  Br  Br10  1  0.76337363  0.98723009  0.27082070  1
  Br  Br11  1  0.00001875  0.22338134  0.47457062  1
  Br  Br12  1  0.26328440  0.98748624  0.77090302  1
  Br  Br13  1  0.73659061  0.98748452  0.77078810  1
  Br  Br14  1  0.49997808  0.72345361  0.02496729  1
  Br  Br15  1  0.73670448  0.48748655  0.22907488  1
  Br  Br16  1  0.26339948  0.48748504  0.22918909  1
  Br  Br17  1  0.99997836  0.72338147  0.52540777  1
  Br  Br18  1  0.23662448  0.48722986  0.72915731  1
  Br  Br19  1  0.76328123  0.48722064  0.72907095  1
