# generated using pymatgen
data_TlAsH12C2(I3N)2
_symmetry_space_group_name_H-M   'P 1'
_cell_length_a   8.55343164
_cell_length_b   12.26259254
_cell_length_c   8.39481038
_cell_angle_alpha   86.95145011
_cell_angle_beta   90.00261357
_cell_angle_gamma   90.03225790
_symmetry_Int_Tables_number   1
_chemical_formula_structural   TlAsH12C2(I3N)2
_chemical_formula_sum   'Tl2 As2 H24 C4 I12 N4'
_cell_volume   879.26234043
_cell_formula_units_Z   2
loop_
 _symmetry_equiv_pos_site_id
 _symmetry_equiv_pos_as_xyz
  1  'x, y, z'
loop_
 _atom_site_type_symbol
 _atom_site_label
 _atom_site_symmetry_multiplicity
 _atom_site_fract_x
 _atom_site_fract_y
 _atom_site_fract_z
 _atom_site_occupancy
  C  C0  1  0.39781663  0.24966989  0.41503121  1
  C  C1  1  0.89895376  0.25044921  0.08606073  1
  C  C2  1  0.60217830  0.75033401  0.58498048  1
  C  C3  1  0.10105391  0.74955250  0.91394977  1
  N  N4  1  0.53752096  0.24824820  0.52011777  1
  N  N5  1  0.03803527  0.25178959  0.98013419  1
  N  N6  1  0.46247240  0.75175598  0.47989592  1
  N  N7  1  0.96197282  0.74821039  0.01987688  1
  H  H8  1  0.43685351  0.25177644  0.29066016  1
  H  H9  1  0.32974484  0.17541830  0.44204146  1
  H  H10  1  0.32831914  0.32210714  0.43714438  1
  H  H11  1  0.60633222  0.18079230  0.49866839  1
  H  H12  1  0.60515534  0.31804032  0.49664383  1
  H  H13  1  0.50781356  0.24449699  0.64105734  1
  H  H14  1  0.93875460  0.24836096  0.21017329  1
  H  H15  1  0.82911241  0.17801284  0.06443983  1
  H  H16  1  0.83093988  0.32472223  0.05946652  1
  H  H17  1  0.10561319  0.18197391  0.00327718  1
  H  H18  1  0.10713533  0.31922528  0.00112670  1
  H  H19  1  0.00766248  0.25550371  0.85936606  1
  H  H20  1  0.56314320  0.74822754  0.70935214  1
  H  H21  1  0.67167482  0.67789649  0.56286621  1
  H  H22  1  0.67025021  0.82458535  0.55796906  1
  H  H23  1  0.39366168  0.81921192  0.50134662  1
  H  H24  1  0.39483817  0.68196386  0.50337033  1
  H  H25  1  0.49217861  0.75550753  0.35895599  1
  H  H26  1  0.06125253  0.75164290  0.78983722  1
  H  H27  1  0.17089576  0.82198802  0.93557293  1
  H  H28  1  0.16906725  0.67527885  0.94054074  1
  H  H29  1  0.89439366  0.81802569  0.99673515  1
  H  H30  1  0.89287362  0.68077428  0.99888312  1
  H  H31  1  0.99234551  0.74449564  0.14064485  1
  As  As32  1  0.50000487  0.00000262  0.00000713  1
  As  As33  1  0.99999675  0.50000253  0.50000717  1
  Tl  Tl34  1  0.00000404  0.00000318  0.50000595  1
  Tl  Tl35  1  0.49999645  0.50000330  0.00000742  1
  I  I36  1  0.47463921  0.23337361  0.94201147  1
  I  I37  1  0.20259233  0.00361855  0.16066083  1
  I  I38  1  0.65924527  0.01886487  0.30127579  1
  I  I39  1  0.97400398  0.26665774  0.55849999  1
  I  I40  1  0.34076133  0.98114166  0.69873839  1
  I  I41  1  0.79741646  0.99638370  0.83935230  1
  I  I42  1  0.52536987  0.76663234  0.05800367  1
  I  I43  1  0.70275677  0.49620219  0.33900045  1
  I  I44  1  0.15958130  0.48125228  0.19889874  1
  I  I45  1  0.02598971  0.73334771  0.44151347  1
  I  I46  1  0.29723744  0.50380124  0.66101314  1
  I  I47  1  0.84041238  0.51875249  0.80111427  1
