# generated using pymatgen
data_CsMgBr3
_symmetry_space_group_name_H-M   'P 1'
_cell_length_a   7.61137852
_cell_length_b   10.76182223
_cell_length_c   7.61140232
_cell_angle_alpha   89.99999585
_cell_angle_beta   89.99995437
_cell_angle_gamma   90.00000133
_symmetry_Int_Tables_number   1
_chemical_formula_structural   CsMgBr3
_chemical_formula_sum   'Cs4 Mg4 Br12'
_cell_volume   623.46748934
_cell_formula_units_Z   4
loop_
 _symmetry_equiv_pos_site_id
 _symmetry_equiv_pos_as_xyz
  1  'x, y, z'
loop_
 _atom_site_type_symbol
 _atom_site_label
 _atom_site_symmetry_multiplicity
 _atom_site_fract_x
 _atom_site_fract_y
 _atom_site_fract_z
 _atom_site_occupancy
  Cs  Cs0  1  0.49975692  0.24964894  0.49975937  1
  Cs  Cs1  1  0.99975187  0.25026921  0.00022693  1
  Cs  Cs2  1  0.50023758  0.74964782  0.50022259  1
  Cs  Cs3  1  0.00024415  0.75026783  0.99975545  1
  Mg  Mg4  1  0.50000367  0.99996282  0.99972639  1
  Mg  Mg5  1  0.99999686  0.49996725  0.50024631  1
  Mg  Mg6  1  0.99999661  0.99996727  0.49972623  1
  Mg  Mg7  1  0.49999011  0.49996280  0.00024615  1
  Br  Br8  1  0.49977420  0.24996099  0.99924867  1
  Br  Br9  1  0.24973034  0.00024020  0.24963249  1
  Br  Br10  1  0.74962087  0.00018442  0.25026970  1
  Br  Br11  1  0.99978692  0.24996454  0.50073274  1
  Br  Br12  1  0.25025956  0.99967618  0.74963613  1
  Br  Br13  1  0.75036819  0.99973938  0.75026529  1
  Br  Br14  1  0.50021977  0.74996064  0.00072921  1
  Br  Br15  1  0.74972640  0.49967821  0.25035026  1
  Br  Br16  1  0.24962242  0.49974006  0.24971093  1
  Br  Br17  1  0.00020773  0.74996434  0.49924429  1
  Br  Br18  1  0.25037805  0.50018384  0.74970559  1
  Br  Br19  1  0.75027313  0.50023759  0.75035410  1
