# generated using pymatgen
data_CsGeBr3
_symmetry_space_group_name_H-M   'P 1'
_cell_length_a   7.83421503
_cell_length_b   11.08352134
_cell_length_c   7.83422987
_cell_angle_alpha   90.00000393
_cell_angle_beta   90.00001196
_cell_angle_gamma   89.99999691
_symmetry_Int_Tables_number   1
_chemical_formula_structural   CsGeBr3
_chemical_formula_sum   'Cs4 Ge4 Br12'
_cell_volume   680.25158059
_cell_formula_units_Z   4
loop_
 _symmetry_equiv_pos_site_id
 _symmetry_equiv_pos_as_xyz
  1  'x, y, z'
loop_
 _atom_site_type_symbol
 _atom_site_label
 _atom_site_symmetry_multiplicity
 _atom_site_fract_x
 _atom_site_fract_y
 _atom_site_fract_z
 _atom_site_occupancy
  Cs  Cs0  1  0.49983754  0.24985942  0.49981816  1
  Cs  Cs1  1  0.99983512  0.25005767  0.00016352  1
  Cs  Cs2  1  0.50015683  0.74985924  0.50016229  1
  Cs  Cs3  1  0.00015955  0.75005746  0.99981642  1
  Ge  Ge4  1  0.50000371  0.99997736  0.99962442  1
  Ge  Ge5  1  0.99999111  0.49997733  0.50033738  1
  Ge  Ge6  1  0.00000252  0.99997725  0.49962446  1
  Ge  Ge7  1  0.49999002  0.49997750  0.00033745  1
  Br  Br8  1  0.49983780  0.24995130  0.99950672  1
  Br  Br9  1  0.24970359  0.00012830  0.24977335  1
  Br  Br10  1  0.74977994  0.00010097  0.25027910  1
  Br  Br11  1  0.99984639  0.24995672  0.50047659  1
  Br  Br12  1  0.25028647  0.99978528  0.74977245  1
  Br  Br13  1  0.75021080  0.99981723  0.75028072  1
  Br  Br14  1  0.50015668  0.74995131  0.00047436  1
  Br  Br15  1  0.74970697  0.49978665  0.25021767  1
  Br  Br16  1  0.24977743  0.49981785  0.24970092  1
  Br  Br17  1  0.00014812  0.74995672  0.49950379  1
  Br  Br18  1  0.25022182  0.50010114  0.74970260  1
  Br  Br19  1  0.75029296  0.50012762  0.75021645  1
