# generated using pymatgen
data_CsSnBr3
_symmetry_space_group_name_H-M   'P 1'
_cell_length_a   8.18368077
_cell_length_b   11.57200080
_cell_length_c   8.18369060
_cell_angle_alpha   90.00005201
_cell_angle_beta   90.00002034
_cell_angle_gamma   89.99994485
_symmetry_Int_Tables_number   1
_chemical_formula_structural   CsSnBr3
_chemical_formula_sum   'Cs4 Sn4 Br12'
_cell_volume   775.00826870
_cell_formula_units_Z   4
loop_
 _symmetry_equiv_pos_site_id
 _symmetry_equiv_pos_as_xyz
  1  'x, y, z'
loop_
 _atom_site_type_symbol
 _atom_site_label
 _atom_site_symmetry_multiplicity
 _atom_site_fract_x
 _atom_site_fract_y
 _atom_site_fract_z
 _atom_site_occupancy
  Cs  Cs0  1  0.49977700  0.24971902  0.49978045  1
  Cs  Cs1  1  0.99977074  0.25020311  0.00020606  1
  Cs  Cs2  1  0.50021734  0.74971964  0.50020138  1
  Cs  Cs3  1  0.00022366  0.75020333  0.99977581  1
  Sn  Sn4  1  0.49999828  0.99995771  0.99978509  1
  Sn  Sn5  1  0.99999552  0.49996771  0.50019203  1
  Sn  Sn6  1  0.99999798  0.99996773  0.49978502  1
  Sn  Sn7  1  0.49999481  0.49995758  0.00019235  1
  Br  Br8  1  0.49977005  0.24996116  0.99923832  1
  Br  Br9  1  0.24968765  0.00030735  0.24951600  1
  Br  Br10  1  0.74952251  0.00023560  0.25030275  1
  Br  Br11  1  0.99978930  0.24996953  0.50073909  1
  Br  Br12  1  0.25030395  0.99960334  0.74952097  1
  Br  Br13  1  0.75047191  0.99968831  0.75030017  1
  Br  Br14  1  0.50022379  0.74996128  0.00073936  1
  Br  Br15  1  0.74968114  0.49960501  0.25046622  1
  Br  Br16  1  0.24951750  0.49968849  0.24967319  1
  Br  Br17  1  0.00021037  0.74996930  0.49923392  1
  Br  Br18  1  0.25047668  0.50023482  0.74966992  1
  Br  Br19  1  0.75031519  0.50030430  0.75047071  1
