# generated using pymatgen
data_AgAsH12C2(I3N)2
_symmetry_space_group_name_H-M   'P 1'
_cell_length_a   8.21605749
_cell_length_b   11.89548115
_cell_length_c   8.16043922
_cell_angle_alpha   88.48717375
_cell_angle_beta   90.01897175
_cell_angle_gamma   90.02463120
_symmetry_Int_Tables_number   1
_chemical_formula_structural   AgAsH12C2(I3N)2
_chemical_formula_sum   'Ag2 As2 H24 C4 I12 N4'
_cell_volume   797.27390647
_cell_formula_units_Z   2
loop_
 _symmetry_equiv_pos_site_id
 _symmetry_equiv_pos_as_xyz
  1  'x, y, z'
loop_
 _atom_site_type_symbol
 _atom_site_label
 _atom_site_symmetry_multiplicity
 _atom_site_fract_x
 _atom_site_fract_y
 _atom_site_fract_z
 _atom_site_occupancy
  C  C0  1  0.39763983  0.24958239  0.41447750  1
  C  C1  1  0.89876259  0.25056348  0.08643331  1
  C  C2  1  0.60235715  0.75042142  0.58553833  1
  C  C3  1  0.10124469  0.74943834  0.91357723  1
  N  N4  1  0.54190094  0.24868415  0.52311484  1
  N  N5  1  0.04236698  0.25134392  0.97702817  1
  N  N6  1  0.45809423  0.75131916  0.47690336  1
  N  N7  1  0.95764008  0.74865484  0.02298219  1
  H  H8  1  0.43876093  0.25145654  0.28691119  1
  H  H9  1  0.32594383  0.17373979  0.43985196  1
  H  H10  1  0.32570168  0.32451966  0.43840677  1
  H  H11  1  0.61360376  0.17881243  0.50103511  1
  H  H12  1  0.61271393  0.31977419  0.49967367  1
  H  H13  1  0.51053114  0.24687968  0.64723120  1
  H  H14  1  0.94067441  0.24875748  0.21376009  1
  H  H15  1  0.82650663  0.17562767  0.06303566  1
  H  H16  1  0.82707599  0.32642313  0.06138159  1
  H  H17  1  0.11313245  0.18022734  0.00018419  1
  H  H18  1  0.11435530  0.32119526  0.99869137  1
  H  H19  1  0.01030248  0.25312127  0.85307910  1
  H  H20  1  0.56123815  0.74854917  0.71310534  1
  H  H21  1  0.67429428  0.67548363  0.56160991  1
  H  H22  1  0.67405348  0.82626355  0.56016097  1
  H  H23  1  0.38639211  0.82119100  0.49898303  1
  H  H24  1  0.38728163  0.68022895  0.50034710  1
  H  H25  1  0.48946237  0.75312261  0.35278633  1
  H  H26  1  0.05933303  0.75124585  0.78625037  1
  H  H27  1  0.17349980  0.82437409  0.93697769  1
  H  H28  1  0.17293230  0.67357879  0.93862611  1
  H  H29  1  0.88687159  0.81977010  0.99982738  1
  H  H30  1  0.88565442  0.67880229  0.00131787  1
  H  H31  1  0.98970422  0.74687745  0.14693144  1
  As  As32  1  0.49999833  0.00000796  0.00001088  1
  As  As33  1  0.99998970  0.50000087  0.49999280  1
  Ag  Ag34  1  0.00000106  0.00000139  0.50001865  1
  Ag  Ag35  1  0.49999593  0.50002543  0.99997367  1
  I  I36  1  0.47727314  0.24248853  0.95093687  1
  I  I37  1  0.19623975  0.00381664  0.18590016  1
  I  I38  1  0.68582773  0.01098702  0.30567760  1
  I  I39  1  0.97656419  0.25752639  0.54958985  1
  I  I40  1  0.31417443  0.98901863  0.69433506  1
  I  I41  1  0.80376330  0.99618524  0.81411755  1
  I  I42  1  0.52273373  0.75751260  0.04908572  1
  I  I43  1  0.69621448  0.49608519  0.31390257  1
  I  I44  1  0.18591847  0.48910554  0.19446860  1
  I  I45  1  0.02342985  0.74247709  0.45041970  1
  I  I46  1  0.30378714  0.50391463  0.68610283  1
  I  I47  1  0.81408612  0.51089551  0.80554372  1
