# generated using pymatgen
data_Cs2BePtBr6
_symmetry_space_group_name_H-M   'P 1'
_cell_length_a   7.48158131
_cell_length_b   11.08441949
_cell_length_c   8.12751770
_cell_angle_alpha   89.98997125
_cell_angle_beta   90.00780934
_cell_angle_gamma   90.00240608
_symmetry_Int_Tables_number   1
_chemical_formula_structural   Cs2BePtBr6
_chemical_formula_sum   'Cs4 Be2 Pt2 Br12'
_cell_volume   674.00678196
_cell_formula_units_Z   2
loop_
 _symmetry_equiv_pos_site_id
 _symmetry_equiv_pos_as_xyz
  1  'x, y, z'
loop_
 _atom_site_type_symbol
 _atom_site_label
 _atom_site_symmetry_multiplicity
 _atom_site_fract_x
 _atom_site_fract_y
 _atom_site_fract_z
 _atom_site_occupancy
  Cs  Cs0  1  0.50017752  0.25764321  0.47102213  1
  Cs  Cs1  1  0.00058912  0.23662284  0.00448004  1
  Cs  Cs2  1  0.49929891  0.73662795  0.49594837  1
  Cs  Cs3  1  0.99975954  0.75766603  0.02986130  1
  Be  Be4  1  0.50007492  0.00463093  0.86298429  1
  Be  Be5  1  0.00001161  0.50482634  0.63787688  1
  Pt  Pt6  1  0.99986290  0.00793778  0.50131668  1
  Pt  Pt7  1  0.50008162  0.50799866  0.99962197  1
  Br  Br8  1  0.50056483  0.17959187  0.95974067  1
  Br  Br9  1  0.22994574  0.01151057  0.29092675  1
  Br  Br10  1  0.77056516  0.01167582  0.29012202  1
  Br  Br11  1  0.00012222  0.33890455  0.50659074  1
  Br  Br12  1  0.22780230  0.97511754  0.72425943  1
  Br  Br13  1  0.77094496  0.97434380  0.72310402  1
  Br  Br14  1  0.49979102  0.83880760  0.99454922  1
  Br  Br15  1  0.72930622  0.51150964  0.21090292  1
  Br  Br16  1  0.26987678  0.51127648  0.20988825  1
  Br  Br17  1  0.99951624  0.67969942  0.54071073  1
  Br  Br18  1  0.27228448  0.47545182  0.77648165  1
  Br  Br19  1  0.72904584  0.47489690  0.77777584  1
