# generated using pymatgen
data_Cs2BeCdBr6
_symmetry_space_group_name_H-M   'P 1'
_cell_length_a   7.76745094
_cell_length_b   11.43764974
_cell_length_c   8.09323571
_cell_angle_alpha   90.00011551
_cell_angle_beta   90.00089658
_cell_angle_gamma   89.99754280
_symmetry_Int_Tables_number   1
_chemical_formula_structural   Cs2BeCdBr6
_chemical_formula_sum   'Cs4 Be2 Cd2 Br12'
_cell_volume   719.01425455
_cell_formula_units_Z   2
loop_
 _symmetry_equiv_pos_site_id
 _symmetry_equiv_pos_as_xyz
  1  'x, y, z'
loop_
 _atom_site_type_symbol
 _atom_site_label
 _atom_site_symmetry_multiplicity
 _atom_site_fract_x
 _atom_site_fract_y
 _atom_site_fract_z
 _atom_site_occupancy
  Cs  Cs0  1  0.49998252  0.24835869  0.46485517  1
  Cs  Cs1  1  0.99997624  0.24064988  0.98958940  1
  Cs  Cs2  1  0.49999965  0.74065645  0.51039404  1
  Cs  Cs3  1  0.99998133  0.74835120  0.03512076  1
  Be  Be4  1  0.50001874  0.06295845  0.84885299  1
  Be  Be5  1  0.00003907  0.56295892  0.65111830  1
  Cd  Cd6  1  0.00001816  0.03463762  0.42978949  1
  Cd  Cd7  1  0.49997398  0.53464234  0.07020393  1
  Br  Br8  1  0.49994457  0.22570537  0.96710194  1
  Br  Br9  1  0.26553028  0.97505934  0.26116057  1
  Br  Br10  1  0.73436467  0.97507024  0.26136252  1
  Br  Br11  1  0.00002214  0.24819902  0.51917652  1
  Br  Br12  1  0.26592763  0.99447280  0.76485924  1
  Br  Br13  1  0.73418533  0.99449567  0.76501963  1
  Br  Br14  1  0.50002834  0.74820017  0.98080715  1
  Br  Br15  1  0.76549944  0.47505854  0.23881565  1
  Br  Br16  1  0.23432637  0.47506758  0.23862118  1
  Br  Br17  1  0.99997435  0.72570314  0.53286134  1
  Br  Br18  1  0.23420440  0.49449612  0.73496634  1
  Br  Br19  1  0.76594813  0.49448277  0.73511262  1
