# generated using pymatgen
data_Cs2BePdBr6
_symmetry_space_group_name_H-M   'P 1'
_cell_length_a   7.47673525
_cell_length_b   10.80908643
_cell_length_c   8.21525916
_cell_angle_alpha   89.99858047
_cell_angle_beta   89.99995642
_cell_angle_gamma   89.99946676
_symmetry_Int_Tables_number   1
_chemical_formula_structural   Cs2BePdBr6
_chemical_formula_sum   'Cs4 Be2 Pd2 Br12'
_cell_volume   663.92995033
_cell_formula_units_Z   2
loop_
 _symmetry_equiv_pos_site_id
 _symmetry_equiv_pos_as_xyz
  1  'x, y, z'
loop_
 _atom_site_type_symbol
 _atom_site_label
 _atom_site_symmetry_multiplicity
 _atom_site_fract_x
 _atom_site_fract_y
 _atom_site_fract_z
 _atom_site_occupancy
  Cs  Cs0  1  0.50000051  0.25718296  0.48160615  1
  Cs  Cs1  1  0.99999763  0.23749967  0.00813179  1
  Cs  Cs2  1  0.49999313  0.73750005  0.49178974  1
  Cs  Cs3  1  0.99999699  0.75715283  0.01838591  1
  Be  Be4  1  0.49999986  0.00326575  0.86635558  1
  Be  Be5  1  0.99999681  0.50326316  0.63360942  1
  Pd  Pd6  1  0.99999854  0.00715611  0.50066326  1
  Pd  Pd7  1  0.49999590  0.50716566  0.99934744  1
  Br  Br8  1  0.50000691  0.18033495  0.97348736  1
  Br  Br9  1  0.22839276  0.00686046  0.29086975  1
  Br  Br10  1  0.77161704  0.00685680  0.29085758  1
  Br  Br11  1  0.99999632  0.33243854  0.50418370  1
  Br  Br12  1  0.23324955  0.98399745  0.72455864  1
  Br  Br13  1  0.76672930  0.98397304  0.72454039  1
  Br  Br14  1  0.49999328  0.83243876  0.99580530  1
  Br  Br15  1  0.72839222  0.50684754  0.20913454  1
  Br  Br16  1  0.27160180  0.50684511  0.20913537  1
  Br  Br17  1  -0.00000006  0.68032981  0.52645678  1
  Br  Br18  1  0.26674525  0.48405129  0.77543832  1
  Br  Br19  1  0.73324164  0.48406439  0.77543177  1
