# generated using pymatgen
data_SrH12PbC2(I3N)2
_symmetry_space_group_name_H-M   'P 1'
_cell_length_a   8.72599094
_cell_length_b   12.63231209
_cell_length_c   8.53689976
_cell_angle_alpha   90.08606162
_cell_angle_beta   90.00302166
_cell_angle_gamma   89.99728543
_symmetry_Int_Tables_number   1
_chemical_formula_structural   SrH12PbC2(I3N)2
_chemical_formula_sum   'Sr2 H24 Pb2 C4 I12 N4'
_cell_volume   941.01662287
_cell_formula_units_Z   2
loop_
 _symmetry_equiv_pos_site_id
 _symmetry_equiv_pos_as_xyz
  1  'x, y, z'
loop_
 _atom_site_type_symbol
 _atom_site_label
 _atom_site_symmetry_multiplicity
 _atom_site_fract_x
 _atom_site_fract_y
 _atom_site_fract_z
 _atom_site_occupancy
  C  C0  1  0.39750664  0.25001587  0.41635120  1
  C  C1  1  0.89825480  0.25013504  0.08430455  1
  C  C2  1  0.60248962  0.74998885  0.58365972  1
  C  C3  1  0.10175429  0.74986758  0.91570543  1
  N  N4  1  0.53526079  0.25002473  0.51863863  1
  N  N5  1  0.03563182  0.25002388  0.98150981  1
  N  N6  1  0.46473362  0.74997958  0.48137345  1
  N  N7  1  0.96437891  0.74997430  0.01850046  1
  H  H8  1  0.43498673  0.25009577  0.29383721  1
  H  H9  1  0.33009701  0.17884426  0.44055786  1
  H  H10  1  0.33038210  0.32132447  0.44071697  1
  H  H11  1  0.60189175  0.18323829  0.49556589  1
  H  H12  1  0.60188205  0.31674884  0.49564662  1
  H  H13  1  0.50714918  0.25011894  0.63759065  1
  H  H14  1  0.93620618  0.25008146  0.20667123  1
  H  H15  1  0.83097571  0.17884209  0.06026821  1
  H  H16  1  0.83082447  0.32133363  0.06031097  1
  H  H17  1  0.10226694  0.18326749  0.00432719  1
  H  H18  1  0.10239517  0.31678139  0.00433015  1
  H  H19  1  0.00712932  0.24991478  0.86266136  1
  H  H20  1  0.56501255  0.74990995  0.70617488  1
  H  H21  1  0.66961282  0.67868017  0.55929369  1
  H  H22  1  0.66989869  0.82116010  0.55944927  1
  H  H23  1  0.39810329  0.81676518  0.50444960  1
  H  H24  1  0.39811282  0.68325568  0.50436978  1
  H  H25  1  0.49284205  0.74988582  0.36242061  1
  H  H26  1  0.06380131  0.74992488  0.79333830  1
  H  H27  1  0.16903363  0.82116026  0.93974592  1
  H  H28  1  0.16918654  0.67866947  0.93969189  1
  H  H29  1  0.89773900  0.81672956  0.99568849  1
  H  H30  1  0.89761528  0.68321677  0.99567916  1
  H  H31  1  0.99288208  0.75008226  0.13734829  1
  Sr  Sr32  1  0.50001457  0.00000566  0.00000773  1
  Sr  Sr33  1  0.99998843  0.50000231  0.50000606  1
  Pb  Pb34  1  0.00000695  0.99999077  0.50001398  1
  Pb  Pb35  1  0.49999526  0.49997354  0.00001152  1
  I  I36  1  0.46931866  0.25129861  0.93323799  1
  I  I37  1  0.17198242  0.01783676  0.17066000  1
  I  I38  1  0.67464226  0.01779283  0.33175641  1
  I  I39  1  0.96904489  0.24870419  0.56693237  1
  I  I40  1  0.32537444  0.98221353  0.66826727  1
  I  I41  1  0.82803631  0.98216504  0.82934900  1
  I  I42  1  0.53069509  0.74871681  0.06675451  1
  I  I43  1  0.67196675  0.48209277  0.32932309  1
  I  I44  1  0.17462937  0.48237361  0.16822177  1
  I  I45  1  0.03095696  0.75129911  0.43307449  1
  I  I46  1  0.32798896  0.51793466  0.67072021  1
  I  I47  1  0.82534526  0.51763672  0.83178280  1
