# generated using pymatgen
data_Cs2CaBeBr6
_symmetry_space_group_name_H-M   'P 1'
_cell_length_a   7.97630491
_cell_length_b   9.53484159
_cell_length_c   9.10825406
_cell_angle_alpha   89.99171582
_cell_angle_beta   90.00015763
_cell_angle_gamma   89.99979301
_symmetry_Int_Tables_number   1
_chemical_formula_structural   Cs2CaBeBr6
_chemical_formula_sum   'Cs4 Ca2 Be2 Br12'
_cell_volume   692.70825241
_cell_formula_units_Z   2
loop_
 _symmetry_equiv_pos_site_id
 _symmetry_equiv_pos_as_xyz
  1  'x, y, z'
loop_
 _atom_site_type_symbol
 _atom_site_label
 _atom_site_symmetry_multiplicity
 _atom_site_fract_x
 _atom_site_fract_y
 _atom_site_fract_z
 _atom_site_occupancy
  Cs  Cs0  1  0.49999743  0.26812988  0.46860025  1
  Cs  Cs1  1  0.99999858  0.23176830  0.03130875  1
  Cs  Cs2  1  0.49999892  0.73179197  0.46854670  1
  Cs  Cs3  1  0.99999751  0.76810781  0.03151092  1
  Be  Be4  1  0.49999592  0.99993745  0.86890212  1
  Be  Be5  1  0.99999721  0.50003640  0.63107405  1
  Ca  Ca6  1  0.99999792  0.99997947  0.50786537  1
  Ca  Ca7  1  0.49999775  0.49998004  0.99211289  1
  Br  Br8  1  0.49999600  0.19115876  0.99916205  1
  Br  Br9  1  0.24434382  0.00002056  0.29248905  1
  Br  Br10  1  0.75565501  0.00002212  0.29248523  1
  Br  Br11  1  0.00000049  0.30877850  0.50084264  1
  Br  Br12  1  0.26455301  0.99984366  0.73651419  1
  Br  Br13  1  0.73542889  0.99984713  0.73650328  1
  Br  Br14  1  0.50000172  0.80877356  0.99934551  1
  Br  Br15  1  0.74433970  0.49988365  0.20749294  1
  Br  Br16  1  0.25565422  0.49988788  0.20749089  1
  Br  Br17  1  0.99999373  0.69116433  0.50060235  1
  Br  Br18  1  0.23543498  0.50005839  0.76346823  1
  Br  Br19  1  0.76456255  0.50005445  0.76347142  1
