# generated using pymatgen
data_Cs2BeCBr6
_symmetry_space_group_name_H-M   'P 1'
_cell_length_a   7.62929722
_cell_length_b   11.05504875
_cell_length_c   8.13805942
_cell_angle_alpha   89.99087077
_cell_angle_beta   89.99939389
_cell_angle_gamma   89.99969623
_symmetry_Int_Tables_number   1
_chemical_formula_structural   Cs2BeCBr6
_chemical_formula_sum   'Cs4 Be2 C2 Br12'
_cell_volume   686.38225592
_cell_formula_units_Z   2
loop_
 _symmetry_equiv_pos_site_id
 _symmetry_equiv_pos_as_xyz
  1  'x, y, z'
loop_
 _atom_site_type_symbol
 _atom_site_label
 _atom_site_symmetry_multiplicity
 _atom_site_fract_x
 _atom_site_fract_y
 _atom_site_fract_z
 _atom_site_occupancy
  Cs  Cs0  1  0.49999234  0.24779038  0.47653394  1
  Cs  Cs1  1  0.99998850  0.24766165  0.97948374  1
  Cs  Cs2  1  0.49999619  0.74743533  0.52265042  1
  Cs  Cs3  1  0.00001131  0.74838998  0.02119023  1
  Be  Be4  1  0.49998659  0.05811746  0.86412794  1
  Be  Be5  1  0.99999099  0.55568197  0.63635960  1
  C  C6  1  0.99999598  0.02899166  0.43003227  1
  C  C7  1  0.50001266  0.53140919  0.06945780  1
  Br  Br8  1  0.49998789  0.22346923  0.98557145  1
  Br  Br9  1  0.21596517  0.99937264  0.27506840  1
  Br  Br10  1  0.78403659  0.99937245  0.27506397  1
  Br  Br11  1  0.99999080  0.21742569  0.46263048  1
  Br  Br12  1  0.26449220  0.98847483  0.77570535  1
  Br  Br13  1  0.73548357  0.98847145  0.77570925  1
  Br  Br14  1  0.50001750  0.71985172  0.03632990  1
  Br  Br15  1  0.71588487  0.50199088  0.22462713  1
  Br  Br16  1  0.28414239  0.50199539  0.22463833  1
  Br  Br17  1  0.99999008  0.72182648  0.51672344  1
  Br  Br18  1  0.23564983  0.48574903  0.72394755  1
  Br  Br19  1  0.76432991  0.48574690  0.72393762  1
