# generated using pymatgen
data_Cs2TlBBr6
_symmetry_space_group_name_H-M   'P 1'
_cell_length_a   7.95064318
_cell_length_b   12.32818536
_cell_length_c   7.93885836
_cell_angle_alpha   90.06554733
_cell_angle_beta   77.24095103
_cell_angle_gamma   89.96002214
_symmetry_Int_Tables_number   1
_chemical_formula_structural   Cs2TlBBr6
_chemical_formula_sum   'Cs4 Tl2 B2 Br12'
_cell_volume   758.92791060
_cell_formula_units_Z   2
loop_
 _symmetry_equiv_pos_site_id
 _symmetry_equiv_pos_as_xyz
  1  'x, y, z'
loop_
 _atom_site_type_symbol
 _atom_site_label
 _atom_site_symmetry_multiplicity
 _atom_site_fract_x
 _atom_site_fract_y
 _atom_site_fract_z
 _atom_site_occupancy
  Cs  Cs0  1  0.50487342  0.25047825  0.46487087  1
  Cs  Cs1  1  0.96442090  0.25084634  0.00558538  1
  Cs  Cs2  1  0.53606133  0.75104524  0.49508615  1
  Cs  Cs3  1  0.99435311  0.75033372  0.03503211  1
  B  B4  1  0.44373432  0.05251887  0.94419419  1
  B  B5  1  0.05668853  0.55296321  0.55531385  1
  Tl  Tl6  1  0.00978512  0.99793454  0.50997609  1
  Tl  Tl7  1  0.49006720  0.49756532  0.98998974  1
  Br  Br8  1  0.46017564  0.21924935  0.96049779  1
  Br  Br9  1  0.34247642  0.99474872  0.18270946  1
  Br  Br10  1  0.77647817  0.99420886  0.27556311  1
  Br  Br11  1  0.00941073  0.23072232  0.51084235  1
  Br  Br12  1  0.28317182  0.01405880  0.78405226  1
  Br  Br13  1  0.68167924  0.99426123  0.84196262  1
  Br  Br14  1  0.48943491  0.73033292  0.99061523  1
  Br  Br15  1  0.72298950  0.49382745  0.22473899  1
  Br  Br16  1  0.15714404  0.49438308  0.31682136  1
  Br  Br17  1  0.04101226  0.71971436  0.53866056  1
  Br  Br18  1  0.21743245  0.51437939  0.71515567  1
  Br  Br19  1  0.81855627  0.49565237  0.65812104  1
