# generated using pymatgen
data_Cs2BAuBr6
_symmetry_space_group_name_H-M   'P 1'
_cell_length_a   8.28523449
_cell_length_b   11.24127220
_cell_length_c   8.25893051
_cell_angle_alpha   89.98898045
_cell_angle_beta   78.87822162
_cell_angle_gamma   89.96009530
_symmetry_Int_Tables_number   1
_chemical_formula_structural   Cs2BAuBr6
_chemical_formula_sum   'Cs4 B2 Au2 Br12'
_cell_volume   754.76214018
_cell_formula_units_Z   2
loop_
 _symmetry_equiv_pos_site_id
 _symmetry_equiv_pos_as_xyz
  1  'x, y, z'
loop_
 _atom_site_type_symbol
 _atom_site_label
 _atom_site_symmetry_multiplicity
 _atom_site_fract_x
 _atom_site_fract_y
 _atom_site_fract_z
 _atom_site_occupancy
  Cs  Cs0  1  0.49255350  0.22611600  0.47020459  1
  Cs  Cs1  1  0.97098011  0.22604361  0.99394616  1
  Cs  Cs2  1  0.52927881  0.72608643  0.50624673  1
  Cs  Cs3  1  0.00682483  0.72617550  0.02925526  1
  B  B4  1  0.43687395  0.06223054  0.93781319  1
  B  B5  1  0.06340373  0.56227476  0.56207090  1
  Au  Au6  1  0.91797692  0.06527312  0.41850672  1
  Au  Au7  1  0.58175243  0.56525615  0.08172475  1
  Br  Br8  1  0.44143574  0.24620894  0.94330407  1
  Br  Br9  1  0.34006157  0.00536863  0.16900534  1
  Br  Br10  1  0.75953192  0.94838874  0.25980902  1
  Br  Br11  1  0.05376817  0.21256396  0.55409302  1
  Br  Br12  1  0.28518289  0.00124623  0.78530431  1
  Br  Br13  1  0.66763983  0.00605362  0.84055212  1
  Br  Br14  1  0.44560118  0.71243827  0.94602023  1
  Br  Br15  1  0.74037343  0.44841862  0.24054454  1
  Br  Br16  1  0.15969836  0.50533592  0.33078617  1
  Br  Br17  1  0.05906639  0.74626861  0.55655538  1
  Br  Br18  1  0.21529807  0.50098831  0.71428966  1
  Br  Br19  1  0.83264354  0.50648838  0.65975666  1
