# generated using pymatgen
data_SrHgH12C2(I3N)2
_symmetry_space_group_name_H-M   'P 1'
_cell_length_a   8.52072462
_cell_length_b   12.44681082
_cell_length_c   8.41339417
_cell_angle_alpha   90.53064310
_cell_angle_beta   90.01089766
_cell_angle_gamma   89.99719198
_symmetry_Int_Tables_number   1
_chemical_formula_structural   SrHgH12C2(I3N)2
_chemical_formula_sum   'Sr2 Hg2 H24 C4 I12 N4'
_cell_volume   892.25136398
_cell_formula_units_Z   2
loop_
 _symmetry_equiv_pos_site_id
 _symmetry_equiv_pos_as_xyz
  1  'x, y, z'
loop_
 _atom_site_type_symbol
 _atom_site_label
 _atom_site_symmetry_multiplicity
 _atom_site_fract_x
 _atom_site_fract_y
 _atom_site_fract_z
 _atom_site_occupancy
  C  C0  1  0.39517043  0.24992636  0.41481567  1
  C  C1  1  0.89645144  0.25031314  0.08641274  1
  C  C2  1  0.60482670  0.75007650  0.58519890  1
  C  C3  1  0.10355645  0.74968739  0.91360192  1
  N  N4  1  0.53481282  0.25012274  0.52020350  1
  N  N5  1  0.03538431  0.24994257  0.98012707  1
  N  N6  1  0.46518368  0.74988037  0.47981203  1
  N  N7  1  0.96462528  0.75005465  0.01988991  1
  H  H8  1  0.43488466  0.25010220  0.29095309  1
  H  H9  1  0.32536776  0.17802361  0.43814931  1
  H  H10  1  0.32646060  0.32244328  0.43937941  1
  H  H11  1  0.60351096  0.18236706  0.49793380  1
  H  H12  1  0.60332119  0.31755693  0.49753138  1
  H  H13  1  0.50481319  0.25107424  0.64073689  1
  H  H14  1  0.93703930  0.25018538  0.21000430  1
  H  H15  1  0.82745886  0.17783035  0.06246098  1
  H  H16  1  0.82661385  0.32226922  0.06347499  1
  H  H17  1  0.10391649  0.18245337  0.00244706  1
  H  H18  1  0.10431739  0.31764912  0.00193182  1
  H  H19  1  0.00464192  0.24897426  0.85977978  1
  H  H20  1  0.56511324  0.74990183  0.70906189  1
  H  H21  1  0.67353530  0.67755892  0.56063581  1
  H  H22  1  0.67463027  0.82197864  0.56186439  1
  H  H23  1  0.39648610  0.81763632  0.50208261  1
  H  H24  1  0.39667511  0.68244615  0.50248422  1
  H  H25  1  0.49518287  0.74892935  0.35927891  1
  H  H26  1  0.06296685  0.74981709  0.79001100  1
  H  H27  1  0.17254913  0.82216977  0.93755649  1
  H  H28  1  0.17339455  0.67773089  0.93653531  1
  H  H29  1  0.89609031  0.81754285  0.99757268  1
  H  H30  1  0.89569453  0.68234720  0.99808419  1
  H  H31  1  0.99536934  0.75102243  0.14023673  1
  Sr  Sr32  1  0.50000063  0.00001032  0.00000812  1
  Sr  Sr33  1  0.99998588  0.50000126  0.49998960  1
  Hg  Hg34  1  0.00000189  0.00000187  0.50001354  1
  Hg  Hg35  1  0.49999533  0.50001731  0.99998472  1
  I  I36  1  0.47132009  0.25500008  0.93803018  1
  I  I37  1  0.16813105  0.01778904  0.18294343  1
  I  I38  1  0.68788952  0.01288750  0.33481153  1
  I  I39  1  0.97071173  0.24502464  0.56256807  1
  I  I40  1  0.31212022  0.98711826  0.66520100  1
  I  I41  1  0.83187295  0.98220961  0.81707664  1
  I  I42  1  0.52868422  0.74501525  0.06198240  1
  I  I43  1  0.66803919  0.48206366  0.31703144  1
  I  I44  1  0.18793408  0.48733075  0.16521769  1
  I  I45  1  0.02928744  0.75497976  0.43744996  1
  I  I46  1  0.33193931  0.51793906  0.68295798  1
  I  I47  1  0.81206534  0.51267573  0.83478154  1
