# generated using pymatgen
data_Cs2InBBr6
_symmetry_space_group_name_H-M   'P 1'
_cell_length_a   7.89457147
_cell_length_b   12.27628372
_cell_length_c   7.88739054
_cell_angle_alpha   90.02662738
_cell_angle_beta   77.35724410
_cell_angle_gamma   89.98127556
_symmetry_Int_Tables_number   1
_chemical_formula_structural   Cs2InBBr6
_chemical_formula_sum   'Cs4 In2 B2 Br12'
_cell_volume   745.87996720
_cell_formula_units_Z   2
loop_
 _symmetry_equiv_pos_site_id
 _symmetry_equiv_pos_as_xyz
  1  'x, y, z'
loop_
 _atom_site_type_symbol
 _atom_site_label
 _atom_site_symmetry_multiplicity
 _atom_site_fract_x
 _atom_site_fract_y
 _atom_site_fract_z
 _atom_site_occupancy
  Cs  Cs0  1  0.50098724  0.25302449  0.46972133  1
  Cs  Cs1  1  0.96933160  0.25367662  0.00112835  1
  Cs  Cs2  1  0.53114706  0.75372254  0.49923878  1
  Cs  Cs3  1  0.99834423  0.75293197  0.03008926  1
  B  B4  1  0.44438689  0.05156322  0.94491696  1
  B  B5  1  0.05594861  0.55192347  0.55474375  1
  In  In6  1  0.00476299  0.00051508  0.50493011  1
  In  In7  1  0.49506296  0.50023926  0.99510325  1
  Br  Br8  1  0.46371764  0.21854045  0.96419235  1
  Br  Br9  1  0.33961770  0.99180354  0.18472926  1
  Br  Br10  1  0.77815445  0.99771290  0.27734693  1
  Br  Br11  1  0.00290030  0.22592274  0.50372573  1
  Br  Br12  1  0.28170152  0.01478690  0.78254992  1
  Br  Br13  1  0.68389532  0.99167403  0.83940838  1
  Br  Br14  1  0.49623491  0.72562586  0.99728488  1
  Br  Br15  1  0.72136308  0.49736205  0.22297762  1
  Br  Br16  1  0.16008733  0.49168318  0.31495460  1
  Br  Br17  1  0.03712000  0.71891067  0.53513955  1
  Br  Br18  1  0.21882034  0.51506249  0.71686527  1
  Br  Br19  1  0.81636120  0.49254287  0.66074254  1
