# generated using pymatgen
data_SrH12PtC2(I3N)2
_symmetry_space_group_name_H-M   'P 1'
_cell_length_a   8.12208250
_cell_length_b   13.52439334
_cell_length_c   8.00373613
_cell_angle_alpha   87.52119036
_cell_angle_beta   89.99727671
_cell_angle_gamma   90.02255606
_symmetry_Int_Tables_number   1
_chemical_formula_structural   SrH12PtC2(I3N)2
_chemical_formula_sum   'Sr2 H24 Pt2 C4 I12 N4'
_cell_volume   878.35757688
_cell_formula_units_Z   2
loop_
 _symmetry_equiv_pos_site_id
 _symmetry_equiv_pos_as_xyz
  1  'x, y, z'
loop_
 _atom_site_type_symbol
 _atom_site_label
 _atom_site_symmetry_multiplicity
 _atom_site_fract_x
 _atom_site_fract_y
 _atom_site_fract_z
 _atom_site_occupancy
  C  C0  1  0.39563717  0.25229154  0.41166825  1
  C  C1  1  0.89654859  0.24785261  0.08906613  1
  C  C2  1  0.60436655  0.74771369  0.58833597  1
  C  C3  1  0.10345426  0.75215231  0.91094637  1
  N  N4  1  0.54786843  0.24798298  0.51348438  1
  N  N5  1  0.04833563  0.25198488  0.98653393  1
  N  N6  1  0.45212411  0.75202055  0.48653312  1
  N  N7  1  0.95166917  0.74801412  0.01348098  1
  H  H8  1  0.42932721  0.25431353  0.27899956  1
  H  H9  1  0.32030873  0.18697799  0.44349285  1
  H  H10  1  0.32796429  0.31940558  0.44001562  1
  H  H11  1  0.61729330  0.18549146  0.48928247  1
  H  H12  1  0.62235220  0.30902426  0.48766154  1
  H  H13  1  0.52222554  0.24538107  0.64254986  1
  H  H14  1  0.93085826  0.24588806  0.22157118  1
  H  H15  1  0.82847831  0.18076891  0.06120353  1
  H  H16  1  0.82133227  0.31320685  0.05750805  1
  H  H17  1  0.12270652  0.19090606  0.01210927  1
  H  H18  1  0.11805171  0.31444271  0.01034449  1
  H  H19  1  0.02211452  0.25455228  0.85757329  1
  H  H20  1  0.57067515  0.74569049  0.72101136  1
  H  H21  1  0.67203533  0.68059964  0.55999088  1
  H  H22  1  0.67969011  0.81302504  0.55651361  1
  H  H23  1  0.38270375  0.81451248  0.51073379  1
  H  H24  1  0.37764550  0.69098178  0.51235025  1
  H  H25  1  0.47776808  0.75462505  0.35746001  1
  H  H26  1  0.06914394  0.75411835  0.77844218  1
  H  H27  1  0.17152105  0.81923686  0.93881222  1
  H  H28  1  0.17867595  0.68679909  0.94250055  1
  H  H29  1  0.87729215  0.80909118  0.98790860  1
  H  H30  1  0.88195720  0.68555489  0.98966854  1
  H  H31  1  0.97789088  0.74544634  0.14244067  1
  Sr  Sr32  1  0.50000135  0.00000225  0.00000659  1
  Sr  Sr33  1  0.00000033  0.50000120  0.50000756  1
  Pt  Pt34  1  0.00000123  0.00000166  0.50000670  1
  Pt  Pt35  1  0.49999929  0.50000140  0.00000724  1
  I  I36  1  0.46988539  0.22941357  0.93572890  1
  I  I37  1  0.14083886  0.01104161  0.20166406  1
  I  I38  1  0.70617823  0.01870935  0.36036508  1
  I  I39  1  0.96906707  0.27065022  0.56472249  1
  I  I40  1  0.29382346  0.98129366  0.63964848  1
  I  I41  1  0.85916344  0.98896038  0.79834881  1
  I  I42  1  0.53012022  0.77059125  0.06427542  1
  I  I43  1  0.64081585  0.48892188  0.29834139  1
  I  I44  1  0.20615459  0.48126313  0.13964119  1
  I  I45  1  0.03093144  0.72935291  0.43529327  1
  I  I46  1  0.35918298  0.51108240  0.70167290  1
  I  I47  1  0.79384415  0.51873878  0.86037303  1
