# generated using pymatgen
data_Cs2AlBBr6
_symmetry_space_group_name_H-M   'P 1'
_cell_length_a   7.76234082
_cell_length_b   12.08947280
_cell_length_c   7.75945664
_cell_angle_alpha   90.01073526
_cell_angle_beta   77.40036676
_cell_angle_gamma   90.00120009
_symmetry_Int_Tables_number   1
_chemical_formula_structural   Cs2AlBBr6
_chemical_formula_sum   'Cs4 Al2 B2 Br12'
_cell_volume   710.63201879
_cell_formula_units_Z   2
loop_
 _symmetry_equiv_pos_site_id
 _symmetry_equiv_pos_as_xyz
  1  'x, y, z'
loop_
 _atom_site_type_symbol
 _atom_site_label
 _atom_site_symmetry_multiplicity
 _atom_site_fract_x
 _atom_site_fract_y
 _atom_site_fract_z
 _atom_site_occupancy
  Cs  Cs0  1  0.49482083  0.25597981  0.46933408  1
  Cs  Cs1  1  0.96899605  0.25634644  0.99473658  1
  Cs  Cs2  1  0.53136133  0.75634597  0.50549407  1
  Cs  Cs3  1  0.00479016  0.75594982  0.03056792  1
  B  B4  1  0.44457477  0.05156210  0.94505793  1
  B  B5  1  0.05560520  0.55177143  0.55473621  1
  Al  Al6  1  0.99887735  0.00657507  0.49888791  1
  Al  Al7  1  0.50091337  0.50644948  0.00121060  1
  Br  Br8  1  0.46306709  0.22142223  0.96354825  1
  Br  Br9  1  0.33671844  0.99062112  0.19103041  1
  Br  Br10  1  0.79013764  0.99885199  0.28949274  1
  Br  Br11  1  0.00076327  0.21418153  0.50100310  1
  Br  Br12  1  0.27890919  0.01314458  0.77958422  1
  Br  Br13  1  0.69042520  0.99066268  0.83672065  1
  Br  Br14  1  0.49872459  0.71404160  0.99955292  1
  Br  Br15  1  0.70963301  0.49869770  0.21061001  1
  Br  Br16  1  0.16314730  0.49060410  0.30877491  1
  Br  Br17  1  0.03748846  0.72163941  0.53606453  1
  Br  Br18  1  0.22130103  0.51328035  0.72012024  1
  Br  Br19  1  0.80969109  0.49109691  0.66326155  1
