# generated using pymatgen
data_Cs2PtCBr6
_symmetry_space_group_name_H-M   'P 1'
_cell_length_a   7.01613742
_cell_length_b   12.31525703
_cell_length_c   7.53617370
_cell_angle_alpha   97.05176798
_cell_angle_beta   90.00599140
_cell_angle_gamma   89.99830779
_symmetry_Int_Tables_number   1
_chemical_formula_structural   Cs2PtCBr6
_chemical_formula_sum   'Cs4 Pt2 C2 Br12'
_cell_volume   646.24145580
_cell_formula_units_Z   2
loop_
 _symmetry_equiv_pos_site_id
 _symmetry_equiv_pos_as_xyz
  1  'x, y, z'
loop_
 _atom_site_type_symbol
 _atom_site_label
 _atom_site_symmetry_multiplicity
 _atom_site_fract_x
 _atom_site_fract_y
 _atom_site_fract_z
 _atom_site_occupancy
  Cs  Cs0  1  0.49997269  0.27520381  0.42990074  1
  Cs  Cs1  1  0.00001041  0.22471024  0.06999583  1
  Cs  Cs2  1  0.50001760  0.74435541  0.45869856  1
  Cs  Cs3  1  0.00000217  0.75552707  0.04125572  1
  C  C4  1  0.50002532  0.05804818  0.88738182  1
  C  C5  1  0.99996414  0.44186735  0.61258872  1
  Pt  Pt6  1  0.99996551  0.01973476  0.53571406  1
  Pt  Pt7  1  0.50002336  0.48015112  0.96431285  1
  Br  Br8  1  0.50002343  0.22208762  0.89627105  1
  Br  Br9  1  0.24725901  0.01859907  0.30414869  1
  Br  Br10  1  0.75263435  0.01860125  0.30412449  1
  Br  Br11  1  0.99996216  0.27781804  0.60366924  1
  Br  Br12  1  0.25172029  0.98891138  0.76699755  1
  Br  Br13  1  0.74829396  0.98890208  0.76698509  1
  Br  Br14  1  0.49999444  0.74800581  0.96416887  1
  Br  Br15  1  0.74738668  0.48134688  0.19588232  1
  Br  Br16  1  0.25268312  0.48135043  0.19584389  1
  Br  Br17  1  0.00002496  0.75201825  0.53578535  1
  Br  Br18  1  0.24828518  0.51098535  0.73301786  1
  Br  Br19  1  0.75169660  0.51100023  0.73304611  1
