# generated using pymatgen
data_Cs2OsCBr6
_symmetry_space_group_name_H-M   'P 1'
_cell_length_a   7.86087230
_cell_length_b   10.58715643
_cell_length_c   7.91407353
_cell_angle_alpha   90.00193790
_cell_angle_beta   97.84268289
_cell_angle_gamma   89.99903433
_symmetry_Int_Tables_number   1
_chemical_formula_structural   Cs2OsCBr6
_chemical_formula_sum   'Cs4 Os2 C2 Br12'
_cell_volume   652.48246643
_cell_formula_units_Z   2
loop_
 _symmetry_equiv_pos_site_id
 _symmetry_equiv_pos_as_xyz
  1  'x, y, z'
loop_
 _atom_site_type_symbol
 _atom_site_label
 _atom_site_symmetry_multiplicity
 _atom_site_fract_x
 _atom_site_fract_y
 _atom_site_fract_z
 _atom_site_occupancy
  Cs  Cs0  1  0.52307979  0.24310801  0.48087496  1
  Cs  Cs1  1  0.98511646  0.24009523  0.02373191  1
  Cs  Cs2  1  0.51483165  0.74016644  0.47630644  1
  Cs  Cs3  1  0.97691876  0.74316129  0.01905096  1
  C  C4  1  0.44871339  0.07440977  0.91970548  1
  C  C5  1  0.05139597  0.57435023  0.58026826  1
  Os  Os6  1  0.03206264  0.99516005  0.53307853  1
  Os  Os7  1  0.46793307  0.49519716  0.96691764  1
  Br  Br8  1  0.49105077  0.25509601  0.98761651  1
  Br  Br9  1  0.23439231  0.99503996  0.30318034  1
  Br  Br10  1  0.78475037  0.98265270  0.28935983  1
  Br  Br11  1  0.01469302  0.23031995  0.51566865  1
  Br  Br12  1  0.27161213  0.98894247  0.76296626  1
  Br  Br13  1  0.80384277  0.99475414  0.73596672  1
  Br  Br14  1  0.48525743  0.73035581  0.98427437  1
  Br  Br15  1  0.71517216  0.48261868  0.21063481  1
  Br  Br16  1  0.26556490  0.49504583  0.19683573  1
  Br  Br17  1  0.00896346  0.75502308  0.51226258  1
  Br  Br18  1  0.22838908  0.48894003  0.73706079  1
  Br  Br19  1  0.69620526  0.49478750  0.76402805  1
