# generated using pymatgen
data_HgH6CI3N
_symmetry_space_group_name_H-M   'P 1'
_cell_length_a   7.38356506
_cell_length_b   13.30464650
_cell_length_c   8.78944680
_cell_angle_alpha   90.00029690
_cell_angle_beta   89.99787627
_cell_angle_gamma   89.99997194
_symmetry_Int_Tables_number   1
_chemical_formula_structural   HgH6CI3N
_chemical_formula_sum   'Hg4 H24 C4 I12 N4'
_cell_volume   863.43766033
_cell_formula_units_Z   4
loop_
 _symmetry_equiv_pos_site_id
 _symmetry_equiv_pos_as_xyz
  1  'x, y, z'
loop_
 _atom_site_type_symbol
 _atom_site_label
 _atom_site_symmetry_multiplicity
 _atom_site_fract_x
 _atom_site_fract_y
 _atom_site_fract_z
 _atom_site_occupancy
  C  C0  1  0.42627748  0.24983005  0.35488837  1
  C  C1  1  0.92619693  0.24977643  0.14514242  1
  C  C2  1  0.57372572  0.74984205  0.64512495  1
  C  C3  1  0.07380371  0.74978462  0.85487164  1
  N  N4  1  0.48468968  0.26352102  0.51545662  1
  N  N5  1  0.98460749  0.26328069  0.98452803  1
  N  N6  1  0.51526270  0.76348223  0.48455414  1
  N  N7  1  0.01536348  0.76326624  0.01548461  1
  H  H8  1  0.54472511  0.25502384  0.28067266  1
  H  H9  1  0.36255021  0.17590824  0.34319981  1
  H  H10  1  0.33080869  0.31011716  0.32646685  1
  H  H11  1  0.59152845  0.21646907  0.54411630  1
  H  H12  1  0.52740645  0.33689532  0.53300586  1
  H  H13  1  0.37941683  0.24939573  0.59088265  1
  H  H14  1  0.04478065  0.25448834  0.21927128  1
  H  H15  1  0.86161497  0.17607936  0.15682578  1
  H  H16  1  0.83147275  0.31039385  0.17369462  1
  H  H17  1  0.09123994  0.21609621  0.95592390  1
  H  H18  1  0.02751799  0.33660024  0.96679899  1
  H  H19  1  0.87922616  0.24920162  0.90917600  1
  H  H20  1  0.45525827  0.75500066  0.71934028  1
  H  H21  1  0.63746198  0.67589207  0.65679464  1
  H  H22  1  0.66915363  0.81010084  0.67355665  1
  H  H23  1  0.47253849  0.83691167  0.46702871  1
  H  H24  1  0.40850954  0.71647658  0.45589136  1
  H  H25  1  0.62058000  0.74941798  0.40912669  1
  H  H26  1  0.95520642  0.75446778  0.78074287  1
  H  H27  1  0.16849224  0.81038997  0.82630754  1
  H  H28  1  0.13840481  0.67607494  0.84320561  1
  H  H29  1  0.97243924  0.83661525  0.03319611  1
  H  H30  1  0.90878366  0.71610517  0.04409600  1
  H  H31  1  0.12077190  0.74922556  0.09083946  1
  Hg  Hg32  1  0.56242305  0.94603234  0.06198906  1
  Hg  Hg33  1  0.93769173  0.44615130  0.56238189  1
  Hg  Hg34  1  0.06239840  0.94613164  0.43755021  1
  Hg  Hg35  1  0.43767057  0.44604170  0.93809625  1
  I  I36  1  0.48535361  0.23588800  0.91587249  1
  I  I37  1  0.20751129  0.01495785  0.13512046  1
  I  I38  1  0.70763294  0.01511850  0.36416568  1
  I  I39  1  0.98530374  0.23595973  0.58409451  1
  I  I40  1  0.30614457  0.99648775  0.65921514  1
  I  I41  1  0.80609348  0.99638126  0.84025539  1
  I  I42  1  0.51464080  0.73588570  0.08415098  1
  I  I43  1  0.69384742  0.49649191  0.34078899  1
  I  I44  1  0.19390489  0.49638660  0.15975755  1
  I  I45  1  0.01468104  0.73594988  0.41590054  1
  I  I46  1  0.29239019  0.51512569  0.63587868  1
  I  I47  1  0.79252047  0.51495763  0.86486734  1
