# generated using pymatgen
data_SrH12OsC2(I3N)2
_symmetry_space_group_name_H-M   'P 1'
_cell_length_a   8.25866799
_cell_length_b   11.87126953
_cell_length_c   8.16625252
_cell_angle_alpha   92.22358046
_cell_angle_beta   90.00332757
_cell_angle_gamma   89.98837611
_symmetry_Int_Tables_number   1
_chemical_formula_structural   SrH12OsC2(I3N)2
_chemical_formula_sum   'Sr2 H24 Os2 C4 I12 N4'
_cell_volume   800.02366934
_cell_formula_units_Z   2
loop_
 _symmetry_equiv_pos_site_id
 _symmetry_equiv_pos_as_xyz
  1  'x, y, z'
loop_
 _atom_site_type_symbol
 _atom_site_label
 _atom_site_symmetry_multiplicity
 _atom_site_fract_x
 _atom_site_fract_y
 _atom_site_fract_z
 _atom_site_occupancy
  C  C0  1  0.39507944  0.25026438  0.41294723  1
  C  C1  1  0.89620594  0.24996649  0.08807436  1
  C  C2  1  0.60491822  0.74973951  0.58706480  1
  C  C3  1  0.10379947  0.75003593  0.91193929  1
  N  N4  1  0.53806234  0.25105408  0.52173697  1
  N  N5  1  0.03854526  0.24899290  0.97845223  1
  N  N6  1  0.46193569  0.74895097  0.47827462  1
  N  N7  1  0.96146146  0.75100508  0.02156310  1
  H  H8  1  0.43614839  0.24877944  0.28548587  1
  H  H9  1  0.32206376  0.17586153  0.43594066  1
  H  H10  1  0.32519713  0.32701161  0.43919098  1
  H  H11  1  0.60823092  0.17925127  0.49798088  1
  H  H12  1  0.60961399  0.32076952  0.49944320  1
  H  H13  1  0.50657856  0.25419397  0.64593090  1
  H  H14  1  0.93812424  0.25152708  0.21529358  1
  H  H15  1  0.82609928  0.17326281  0.06249384  1
  H  H16  1  0.82312712  0.32442374  0.06546832  1
  H  H17  1  0.11012447  0.17921408  0.00038773  1
  H  H18  1  0.10888722  0.32072706  0.00172772  1
  H  H19  1  0.00633678  0.24581808  0.85441025  1
  H  H20  1  0.56384964  0.75122495  0.71452574  1
  H  H21  1  0.67479957  0.67299185  0.56082100  1
  H  H22  1  0.67793528  0.82414208  0.56407103  1
  H  H23  1  0.39176717  0.82075357  0.50203198  1
  H  H24  1  0.39038324  0.67923518  0.50056966  1
  H  H25  1  0.49341830  0.74581086  0.35408139  1
  H  H26  1  0.06187961  0.74847742  0.78472055  1
  H  H27  1  0.17390487  0.82673964  0.93752282  1
  H  H28  1  0.17688021  0.67557886  0.93454069  1
  H  H29  1  0.88987884  0.82078251  0.99963140  1
  H  H30  1  0.89112243  0.67926968  0.99828654  1
  H  H31  1  0.99367194  0.75417896  0.14560482  1
  Sr  Sr32  1  0.50000278  0.00000438  0.00000712  1
  Sr  Sr33  1  0.99999647  0.50000220  0.50000079  1
  Os  Os34  1  0.00000104  0.00000254  0.50000756  1
  Os  Os35  1  0.49999769  0.50000383  0.00000214  1
  I  I36  1  0.47394480  0.27206259  0.94649646  1
  I  I37  1  0.16076812  0.01412050  0.20694341  1
  I  I38  1  0.71109556  0.00269861  0.33650867  1
  I  I39  1  0.97324572  0.22790284  0.55403542  1
  I  I40  1  0.28890631  0.99730640  0.66350757  1
  I  I41  1  0.83923605  0.98588146  0.79307208  1
  I  I42  1  0.52605561  0.72794510  0.05351286  1
  I  I43  1  0.66061473  0.48589437  0.29311751  1
  I  I44  1  0.21104515  0.49741765  0.16340281  1
  I  I45  1  0.02675432  0.77210200  0.44598066  1
  I  I46  1  0.33937896  0.51411097  0.70688638  1
  I  I47  1  0.78894961  0.50258775  0.83660099  1
