# generated using pymatgen
data_Cs2SnCBr6
_symmetry_space_group_name_H-M   'P 1'
_cell_length_a   7.84308914
_cell_length_b   11.33071877
_cell_length_c   8.05517452
_cell_angle_alpha   89.99935677
_cell_angle_beta   89.99984256
_cell_angle_gamma   89.99997062
_symmetry_Int_Tables_number   1
_chemical_formula_structural   Cs2SnCBr6
_chemical_formula_sum   'Cs4 Sn2 C2 Br12'
_cell_volume   715.84593870
_cell_formula_units_Z   2
loop_
 _symmetry_equiv_pos_site_id
 _symmetry_equiv_pos_as_xyz
  1  'x, y, z'
loop_
 _atom_site_type_symbol
 _atom_site_label
 _atom_site_symmetry_multiplicity
 _atom_site_fract_x
 _atom_site_fract_y
 _atom_site_fract_z
 _atom_site_occupancy
  Cs  Cs0  1  0.50000692  0.25270216  0.47541679  1
  Cs  Cs1  1  0.99999538  0.24530382  0.00578200  1
  Cs  Cs2  1  0.49999476  0.74532299  0.49412701  1
  Cs  Cs3  1  0.99999632  0.75268263  0.02463557  1
  C  C4  1  0.49998792  0.03460536  0.93073771  1
  C  C5  1  0.99999703  0.53466433  0.56926445  1
  Sn  Sn6  1  0.00000034  0.00783731  0.49319753  1
  Sn  Sn7  1  0.50000364  0.50778235  0.00677041  1
  Br  Br8  1  0.49999220  0.22029852  0.95728674  1
  Br  Br9  1  0.24848770  0.99406130  0.26289490  1
  Br  Br10  1  0.75154959  0.99405371  0.26285631  1
  Br  Br11  1  0.99999005  0.24354262  0.49704949  1
  Br  Br12  1  0.28827812  0.00359126  0.77602088  1
  Br  Br13  1  0.71167912  0.00358798  0.77599677  1
  Br  Br14  1  0.49997228  0.74348412  0.00276986  1
  Br  Br15  1  0.74848317  0.49409307  0.23709433  1
  Br  Br16  1  0.25155524  0.49405965  0.23712304  1
  Br  Br17  1  0.99998818  0.72036571  0.54282060  1
  Br  Br18  1  0.21169250  0.50359622  0.72397731  1
  Br  Br19  1  0.78829489  0.50358923  0.72396711  1
