# generated using pymatgen
data_Cs2SrCBr6
_symmetry_space_group_name_H-M   'P 1'
_cell_length_a   7.96356221
_cell_length_b   11.44205104
_cell_length_c   8.14434197
_cell_angle_alpha   91.96072847
_cell_angle_beta   89.99993452
_cell_angle_gamma   90.00173982
_symmetry_Int_Tables_number   1
_chemical_formula_structural   Cs2SrCBr6
_chemical_formula_sum   'Cs4 Sr2 C2 Br12'
_cell_volume   741.67375323
_cell_formula_units_Z   2
loop_
 _symmetry_equiv_pos_site_id
 _symmetry_equiv_pos_as_xyz
  1  'x, y, z'
loop_
 _atom_site_type_symbol
 _atom_site_label
 _atom_site_symmetry_multiplicity
 _atom_site_fract_x
 _atom_site_fract_y
 _atom_site_fract_z
 _atom_site_occupancy
  Cs  Cs0  1  0.49993763  0.25418501  0.46477251  1
  Cs  Cs1  1  0.99992600  0.24573479  0.03521682  1
  Cs  Cs2  1  0.50000335  0.74784312  0.47053270  1
  Cs  Cs3  1  0.00003281  0.75207297  0.02943507  1
  C  C4  1  0.50000610  0.04136489  0.92206486  1
  C  C5  1  0.00005187  0.45856144  0.57791457  1
  Sr  Sr6  1  0.99995706  -0.00001122  0.49738144  1
  Sr  Sr7  1  0.49997622  0.49992874  0.00259594  1
  Br  Br8  1  0.49990371  0.22665793  0.96032341  1
  Br  Br9  1  0.25782372  0.01446026  0.25196304  1
  Br  Br10  1  0.74179032  0.01444803  0.25229270  1
  Br  Br11  1  0.99995552  0.27326317  0.53970018  1
  Br  Br12  1  0.28978126  0.00921373  0.76896635  1
  Br  Br13  1  0.71056699  0.00929775  0.76936525  1
  Br  Br14  1  0.50008400  0.74689645  0.95936378  1
  Br  Br15  1  0.75780926  0.48544821  0.24804732  1
  Br  Br16  1  0.24178391  0.48546110  0.24766029  1
  Br  Br17  1  0.00005865  0.75301899  0.54057962  1
  Br  Br18  1  0.21064147  0.49067203  0.73056418  1
  Br  Br19  1  0.78985554  0.49070692  0.73104877  1
