# generated using pymatgen
data_Cs2ZnCBr6
_symmetry_space_group_name_H-M   'P 1'
_cell_length_a   7.74727874
_cell_length_b   11.00436260
_cell_length_c   8.21850449
_cell_angle_alpha   92.02674559
_cell_angle_beta   90.00017769
_cell_angle_gamma   89.99977567
_symmetry_Int_Tables_number   1
_chemical_formula_structural   Cs2ZnCBr6
_chemical_formula_sum   'Cs4 Zn2 C2 Br12'
_cell_volume   700.22095446
_cell_formula_units_Z   2
loop_
 _symmetry_equiv_pos_site_id
 _symmetry_equiv_pos_as_xyz
  1  'x, y, z'
loop_
 _atom_site_type_symbol
 _atom_site_label
 _atom_site_symmetry_multiplicity
 _atom_site_fract_x
 _atom_site_fract_y
 _atom_site_fract_z
 _atom_site_occupancy
  Cs  Cs0  1  0.50000591  0.25775896  0.48536638  1
  Cs  Cs1  1  0.99999479  0.24216046  0.01461570  1
  Cs  Cs2  1  0.49999508  0.75105721  0.50648842  1
  Cs  Cs3  1  0.00000813  0.74887126  0.99347890  1
  C  C4  1  0.50000841  0.04203091  0.92393195  1
  C  C5  1  0.00000757  0.45788310  0.57604853  1
  Zn  Zn6  1  0.99997702  0.95200051  0.39642868  1
  Zn  Zn7  1  0.49997021  0.54793274  0.10355372  1
  Br  Br8  1  0.50000021  0.23085395  0.97100166  1
  Br  Br9  1  0.25600380  0.00553795  0.26563828  1
  Br  Br10  1  0.74393678  0.00552593  0.26565386  1
  Br  Br11  1  0.00000954  0.26905773  0.52897825  1
  Br  Br12  1  0.28722729  0.01244429  0.77008412  1
  Br  Br13  1  0.71280708  0.01244508  0.77010321  1
  Br  Br14  1  0.50001173  0.72992131  0.96518581  1
  Br  Br15  1  0.75599975  0.49439199  0.23435194  1
  Br  Br16  1  0.24392174  0.49440021  0.23431496  1
  Br  Br17  1  0.99999763  0.77000978  0.53479112  1
  Br  Br18  1  0.21281976  0.48747400  0.72985831  1
  Br  Br19  1  0.78724292  0.48746695  0.72991501  1
