# generated using pymatgen
data_Cs2CaCBr6
_symmetry_space_group_name_H-M   'P 1'
_cell_length_a   7.82982927
_cell_length_b   11.25756426
_cell_length_c   8.07117443
_cell_angle_alpha   92.44450710
_cell_angle_beta   89.99819423
_cell_angle_gamma   90.00119970
_symmetry_Int_Tables_number   1
_chemical_formula_structural   Cs2CaCBr6
_chemical_formula_sum   'Cs4 Ca2 C2 Br12'
_cell_volume   710.78470245
_cell_formula_units_Z   2
loop_
 _symmetry_equiv_pos_site_id
 _symmetry_equiv_pos_as_xyz
  1  'x, y, z'
loop_
 _atom_site_type_symbol
 _atom_site_label
 _atom_site_symmetry_multiplicity
 _atom_site_fract_x
 _atom_site_fract_y
 _atom_site_fract_z
 _atom_site_occupancy
  Cs  Cs0  1  0.49997065  0.25491093  0.46931032  1
  Cs  Cs1  1  0.00000608  0.24501478  0.03069599  1
  Cs  Cs2  1  0.49997750  0.74692992  0.47268183  1
  Cs  Cs3  1  0.99998866  0.75298342  0.02719782  1
  C  C4  1  0.50004316  0.04150223  0.91924091  1
  C  C5  1  0.00003309  0.45841552  0.58074497  1
  Ca  Ca6  1  0.99992862  0.99984004  0.48724908  1
  Ca  Ca7  1  0.49993956  0.50008125  0.01274492  1
  Br  Br8  1  0.50012415  0.23061850  0.96561591  1
  Br  Br9  1  0.25573594  0.01277601  0.25730272  1
  Br  Br10  1  0.74388882  0.01271270  0.25755948  1
  Br  Br11  1  0.00002960  0.26930824  0.53434539  1
  Br  Br12  1  0.28564727  0.00724245  0.76669908  1
  Br  Br13  1  0.71459621  0.00714615  0.76693405  1
  Br  Br14  1  0.50001753  0.73776182  0.95908020  1
  Br  Br15  1  0.75578703  0.48717073  0.24265874  1
  Br  Br16  1  0.24394730  0.48722547  0.24248539  1
  Br  Br17  1  0.00003847  0.76215610  0.54088289  1
  Br  Br18  1  0.21460109  0.49272382  0.73307803  1
  Br  Br19  1  0.78564462  0.49270425  0.73328109  1
