# generated using pymatgen
data_BaSrH12C2(I3N)2
_symmetry_space_group_name_H-M   'P 1'
_cell_length_a   8.99539074
_cell_length_b   12.91294187
_cell_length_c   8.64138973
_cell_angle_alpha   89.63728906
_cell_angle_beta   90.00114762
_cell_angle_gamma   90.00009455
_symmetry_Int_Tables_number   1
_chemical_formula_structural   BaSrH12C2(I3N)2
_chemical_formula_sum   'Ba2 Sr2 H24 C4 I12 N4'
_cell_volume   1003.73742809
_cell_formula_units_Z   2
loop_
 _symmetry_equiv_pos_site_id
 _symmetry_equiv_pos_as_xyz
  1  'x, y, z'
loop_
 _atom_site_type_symbol
 _atom_site_label
 _atom_site_symmetry_multiplicity
 _atom_site_fract_x
 _atom_site_fract_y
 _atom_site_fract_z
 _atom_site_occupancy
  C  C0  1  0.39646727  0.25017156  0.42060194  1
  C  C1  1  0.89660118  0.24983481  0.07939272  1
  C  C2  1  0.60352234  0.74983395  0.57938558  1
  C  C3  1  0.10339424  0.75015982  0.92061088  1
  N  N4  1  0.53385663  0.24995561  0.51615614  1
  N  N5  1  0.03398264  0.25004418  0.98382934  1
  N  N6  1  0.46613598  0.75004544  0.48382529  1
  N  N7  1  0.96602356  0.74994723  0.01618915  1
  H  H8  1  0.42807616  0.25004518  0.29807568  1
  H  H9  1  0.33249263  0.18022225  0.44755297  1
  H  H10  1  0.33203406  0.31980143  0.44694348  1
  H  H11  1  0.59742639  0.18456697  0.49077058  1
  H  H12  1  0.59788157  0.31544741  0.49095596  1
  H  H13  1  0.51035391  0.24941027  0.63464775  1
  H  H14  1  0.92822120  0.24997008  0.20192116  1
  H  H15  1  0.83215645  0.18020363  0.05306750  1
  H  H16  1  0.83262573  0.31978777  0.05243271  1
  H  H17  1  0.09799295  0.18454908  0.00903919  1
  H  H18  1  0.09755696  0.31542563  0.00920597  1
  H  H19  1  0.01046529  0.25058217  0.86534357  1
  H  H20  1  0.57190581  0.74995895  0.70190786  1
  H  H21  1  0.66795436  0.68020411  0.55304724  1
  H  H22  1  0.66749511  0.81978252  0.55243253  1
  H  H23  1  0.40256053  0.81543329  0.50920360  1
  H  H24  1  0.40211260  0.68455403  0.50903519  1
  H  H25  1  0.48963936  0.75058649  0.36533278  1
  H  H26  1  0.07176271  0.75003728  0.79808403  1
  H  H27  1  0.16784954  0.81978855  0.94693897  1
  H  H28  1  0.16737254  0.68020292  0.94754739  1
  H  H29  1  0.90200988  0.81543977  0.99098234  1
  H  H30  1  0.90245236  0.68456408  0.99081843  1
  H  H31  1  0.98955070  0.74941127  0.13467121  1
  Sr  Sr32  1  0.50001802  0.00000329  0.99997637  1
  Sr  Sr33  1  0.00003292  0.50001926  0.50006929  1
  Ba  Ba34  1  0.00000091  0.00001784  0.49998628  1
  Ba  Ba35  1  0.50000616  0.49999203  0.00008359  1
  I  I36  1  0.46233266  0.24461376  0.92373370  1
  I  I37  1  0.17798644  0.02229223  0.15823419  1
  I  I38  1  0.66442297  0.02486586  0.32939319  1
  I  I39  1  0.96233019  0.25540172  0.57627054  1
  I  I40  1  0.33556838  0.97513685  0.67059045  1
  I  I41  1  0.82205915  0.97770053  0.84176425  1
  I  I42  1  0.53766034  0.75539485  0.07623494  1
  I  I43  1  0.67796809  0.47772815  0.34184809  1
  I  I44  1  0.16442079  0.47516600  0.17064790  1
  I  I45  1  0.03766427  0.74462492  0.42376635  1
  I  I46  1  0.32206595  0.52233333  0.65829677  1
  I  I47  1  0.83555387  0.52481993  0.82945157  1
