# generated using pymatgen
data_Cs2RhBr6N
_symmetry_space_group_name_H-M   'P 1'
_cell_length_a   6.92892792
_cell_length_b   12.03098808
_cell_length_c   7.57928318
_cell_angle_alpha   89.34969457
_cell_angle_beta   90.00062791
_cell_angle_gamma   89.99987356
_symmetry_Int_Tables_number   1
_chemical_formula_structural   Cs2RhBr6N
_chemical_formula_sum   'Cs4 Rh2 Br12 N2'
_cell_volume   631.78236609
_cell_formula_units_Z   2
loop_
 _symmetry_equiv_pos_site_id
 _symmetry_equiv_pos_as_xyz
  1  'x, y, z'
loop_
 _atom_site_type_symbol
 _atom_site_label
 _atom_site_symmetry_multiplicity
 _atom_site_fract_x
 _atom_site_fract_y
 _atom_site_fract_z
 _atom_site_occupancy
  Cs  Cs0  1  0.50000092  0.26393710  0.53560427  1
  Cs  Cs1  1  0.00000182  0.23599524  0.96437507  1
  Cs  Cs2  1  0.49999871  0.74485812  0.54549708  1
  Cs  Cs3  1  0.99999809  0.75506510  0.95448584  1
  N  N4  1  0.49998103  0.07846997  0.23373368  1
  N  N5  1  0.99999566  0.42145207  0.26624480  1
  Rh  Rh6  1  0.99999583  0.99786358  0.47845959  1
  Rh  Rh7  1  0.49999763  0.50205420  0.02151819  1
  Br  Br8  1  0.50000061  0.29374496  0.03236482  1
  Br  Br9  1  0.26569517  0.99011094  0.23477584  1
  Br  Br10  1  0.73427002  0.99010895  0.23478595  1
  Br  Br11  1  0.99999817  0.20617320  0.46760768  1
  Br  Br12  1  0.25023373  0.99656364  0.71458632  1
  Br  Br13  1  0.74979046  0.99656429  0.71461198  1
  Br  Br14  1  0.49999714  0.71301522  0.04058421  1
  Br  Br15  1  0.76570646  0.50980926  0.26519671  1
  Br  Br16  1  0.23428541  0.50981079  0.26519099  1
  Br  Br17  1  0.99999548  0.78690578  0.45940010  1
  Br  Br18  1  0.24978114  0.50336070  0.78537617  1
  Br  Br19  1  0.75022188  0.50336123  0.78538954  1
