# generated using pymatgen
data_Cs2YBr6N
_symmetry_space_group_name_H-M   'P 1'
_cell_length_a   8.04897361
_cell_length_b   11.67448851
_cell_length_c   7.81011240
_cell_angle_alpha   89.92458781
_cell_angle_beta   104.65686597
_cell_angle_gamma   90.10728877
_symmetry_Int_Tables_number   1
_chemical_formula_structural   Cs2YBr6N
_chemical_formula_sum   'Cs4 Y2 Br12 N2'
_cell_volume   710.01426643
_cell_formula_units_Z   2
loop_
 _symmetry_equiv_pos_site_id
 _symmetry_equiv_pos_as_xyz
  1  'x, y, z'
loop_
 _atom_site_type_symbol
 _atom_site_label
 _atom_site_symmetry_multiplicity
 _atom_site_fract_x
 _atom_site_fract_y
 _atom_site_fract_z
 _atom_site_occupancy
  Cs  Cs0  1  0.54389510  0.27611662  0.47389308  1
  Cs  Cs1  1  0.98795854  0.28230055  0.09968723  1
  Cs  Cs2  1  0.51041611  0.78135502  0.40066090  1
  Cs  Cs3  1  0.95674624  0.77726144  0.02816865  1
  N  N4  1  0.31502135  0.83732444  0.98017185  1
  N  N5  1  0.18621560  0.33771808  0.51795992  1
  Y  Y6  1  0.01615597  0.99938004  0.54546095  1
  Y  Y7  1  0.48371814  0.49921337  0.95455079  1
  Br  Br8  1  0.48076710  0.26920528  0.96543122  1
  Br  Br9  1  0.24839477  0.03904320  0.34875955  1
  Br  Br10  1  0.75043483  0.02508568  0.25183179  1
  Br  Br11  1  0.03979517  0.24628700  0.63021675  1
  Br  Br12  1  0.30728090  0.98822381  0.87956920  1
  Br  Br13  1  0.79487184  0.03625196  0.75874393  1
  Br  Br14  1  0.46157092  0.74591122  0.86889504  1
  Br  Br15  1  0.74736305  0.52551601  0.24994406  1
  Br  Br16  1  0.24898457  0.53973574  0.14752381  1
  Br  Br17  1  0.01741203  0.76934226  0.53641059  1
  Br  Br18  1  0.19505294  0.48873057  0.61795034  1
  Br  Br19  1  0.70789019  0.53522204  0.74395918  1
