# generated using pymatgen
data_Cs2ScBr6N
_symmetry_space_group_name_H-M   'P 1'
_cell_length_a   7.98704287
_cell_length_b   11.41187648
_cell_length_c   7.66018118
_cell_angle_alpha   89.91923611
_cell_angle_beta   104.26187350
_cell_angle_gamma   90.09333874
_symmetry_Int_Tables_number   1
_chemical_formula_structural   Cs2ScBr6N
_chemical_formula_sum   'Cs4 Sc2 Br12 N2'
_cell_volume   676.68367170
_cell_formula_units_Z   2
loop_
 _symmetry_equiv_pos_site_id
 _symmetry_equiv_pos_as_xyz
  1  'x, y, z'
loop_
 _atom_site_type_symbol
 _atom_site_label
 _atom_site_symmetry_multiplicity
 _atom_site_fract_x
 _atom_site_fract_y
 _atom_site_fract_z
 _atom_site_occupancy
  Cs  Cs0  1  0.54249363  0.27438594  0.47679194  1
  Cs  Cs1  1  0.98891163  0.28548562  0.09656510  1
  Cs  Cs2  1  0.50985129  0.78524449  0.40313414  1
  Cs  Cs3  1  0.95843052  0.77473185  0.02463539  1
  N  N4  1  0.31744053  0.83982850  0.97951036  1
  N  N5  1  0.18338432  0.33979048  0.52013756  1
  Sc  Sc6  1  0.01044690  0.99930985  0.53467381  1
  Sc  Sc7  1  0.48937310  0.49963749  0.96510309  1
  Br  Br8  1  0.48318529  0.27830742  0.96841931  1
  Br  Br9  1  0.23542932  0.03748081  0.34894546  1
  Br  Br10  1  0.75839177  0.02704468  0.25474303  1
  Br  Br11  1  0.04019375  0.23851296  0.63002830  1
  Br  Br12  1  0.29783783  0.98736499  0.85649934  1
  Br  Br13  1  0.80507357  0.03102547  0.74897320  1
  Br  Br14  1  0.46064015  0.73895134  0.86995474  1
  Br  Br15  1  0.74103754  0.52730982  0.24539475  1
  Br  Br16  1  0.26372695  0.53764111  0.14966781  1
  Br  Br17  1  0.01619733  0.77802252  0.53281714  1
  Br  Br18  1  0.20274661  0.48733271  0.64265639  1
  Br  Br19  1  0.69515336  0.53181625  0.75113796  1
