# generated using pymatgen
data_SrSnH12C2(I3N)2
_symmetry_space_group_name_H-M   'P 1'
_cell_length_a   8.69283863
_cell_length_b   12.55527033
_cell_length_c   8.50611670
_cell_angle_alpha   90.15631169
_cell_angle_beta   90.00267342
_cell_angle_gamma   90.00013748
_symmetry_Int_Tables_number   1
_chemical_formula_structural   SrSnH12C2(I3N)2
_chemical_formula_sum   'Sr2 Sn2 H24 C4 I12 N4'
_cell_volume   928.36210710
_cell_formula_units_Z   2
loop_
 _symmetry_equiv_pos_site_id
 _symmetry_equiv_pos_as_xyz
  1  'x, y, z'
loop_
 _atom_site_type_symbol
 _atom_site_label
 _atom_site_symmetry_multiplicity
 _atom_site_fract_x
 _atom_site_fract_y
 _atom_site_fract_z
 _atom_site_occupancy
  C  C0  1  0.39937901  0.24990432  0.41689928  1
  C  C1  1  0.89986026  0.25011146  0.08347109  1
  C  C2  1  0.60061116  0.75010173  0.58310679  1
  C  C3  1  0.10014374  0.74989052  0.91654627  1
  N  N4  1  0.53787728  0.25000014  0.51926330  1
  N  N5  1  0.03813495  0.25000534  0.98080654  1
  N  N6  1  0.46211290  0.75000437  0.48074260  1
  N  N7  1  0.96187267  0.74999376  0.01921562  1
  H  H8  1  0.43677147  0.25001275  0.29386899  1
  H  H9  1  0.33174074  0.17833843  0.44132936  1
  H  H10  1  0.33205254  0.32168295  0.44151556  1
  H  H11  1  0.60479793  0.18284044  0.49597000  1
  H  H12  1  0.60464261  0.31711690  0.49604316  1
  H  H13  1  0.50990111  0.25019837  0.63870622  1
  H  H14  1  0.93753962  0.25000653  0.20641173  1
  H  H15  1  0.83247420  0.17832912  0.05902706  1
  H  H16  1  0.83217575  0.32168318  0.05919732  1
  H  H17  1  0.10493789  0.18288696  0.00389612  1
  H  H18  1  0.10510545  0.31716182  0.00396022  1
  H  H19  1  0.00992488  0.24980514  0.86141673  1
  H  H20  1  0.56321907  0.74999393  0.70613698  1
  H  H21  1  0.66793832  0.67832365  0.55849193  1
  H  H22  1  0.66824832  0.82166840  0.55867518  1
  H  H23  1  0.39519043  0.81716225  0.50403453  1
  H  H24  1  0.39535029  0.68288588  0.50396412  1
  H  H25  1  0.49008923  0.74980463  0.36129891  1
  H  H26  1  0.06245808  0.74999748  0.79360735  1
  H  H27  1  0.16752999  0.82167301  0.94099027  1
  H  H28  1  0.16783005  0.67831912  0.94081338  1
  H  H29  1  0.89506702  0.81711045  0.99613221  1
  H  H30  1  0.89490339  0.68283646  0.99606331  1
  H  H31  1  0.99008846  0.75019248  0.13860538  1
  Sr  Sr32  1  0.50001752  0.00000087  0.00000617  1
  Sr  Sr33  1  0.99999770  0.50000104  0.50000909  1
  Sn  Sn34  1  0.00000774  0.99999378  0.50000095  1
  Sn  Sn35  1  0.49999613  0.49999102  0.00000625  1
  I  I36  1  0.47313433  0.25306745  0.93567017  1
  I  I37  1  0.17285736  0.01750827  0.17568907  1
  I  I38  1  0.67967980  0.01689760  0.33066895  1
  I  I39  1  0.97302279  0.24693774  0.56446317  1
  I  I40  1  0.32033391  0.98311741  0.66935698  1
  I  I41  1  0.82716545  0.98249150  0.82431726  1
  I  I42  1  0.52687150  0.74693445  0.06433717  1
  I  I43  1  0.67281653  0.48242956  0.32431722  1
  I  I44  1  0.17970143  0.48319907  0.16935620  1
  I  I45  1  0.02697779  0.75306522  0.43555564  1
  I  I46  1  0.32717965  0.51757196  0.67569584  1
  I  I47  1  0.82029533  0.51682937  0.83063892  1
