# generated using pymatgen
data_Cs2MgPbBr6
_symmetry_space_group_name_H-M   'P 1'
_cell_length_a   7.96345212
_cell_length_b   11.25737074
_cell_length_c   7.96350195
_cell_angle_alpha   89.99440998
_cell_angle_beta   89.99999779
_cell_angle_gamma   89.99992423
_symmetry_Int_Tables_number   1
_chemical_formula_structural   Cs2MgPbBr6
_chemical_formula_sum   'Cs4 Mg2 Pb2 Br12'
_cell_volume   713.90829946
_cell_formula_units_Z   2
loop_
 _symmetry_equiv_pos_site_id
 _symmetry_equiv_pos_as_xyz
  1  'x, y, z'
loop_
 _atom_site_type_symbol
 _atom_site_label
 _atom_site_symmetry_multiplicity
 _atom_site_fract_x
 _atom_site_fract_y
 _atom_site_fract_z
 _atom_site_occupancy
  Cs  Cs0  1  0.49979775  0.24973248  0.49982234  1
  Cs  Cs1  1  0.99979347  0.25018953  0.00016404  1
  Cs  Cs2  1  0.50019720  0.74973205  0.50017222  1
  Cs  Cs3  1  0.00020190  0.75018844  0.99980622  1
  Mg  Mg4  1  0.49999894  0.99995723  0.99979501  1
  Mg  Mg5  1  0.99999611  0.49996699  0.50018319  1
  Pb  Pb6  1  0.99999838  0.99996684  0.49978856  1
  Pb  Pb7  1  0.49999526  0.49995712  0.00018945  1
  Br  Br8  1  0.49976091  0.23679511  0.99913024  1
  Br  Br9  1  0.26281129  0.00031069  0.23633520  1
  Br  Br10  1  0.73633770  0.00026315  0.23718167  1
  Br  Br11  1  0.99977625  0.26312794  0.50084894  1
  Br  Br12  1  0.26350611  0.99958942  0.76266498  1
  Br  Br13  1  0.73733159  0.99967860  0.76350637  1
  Br  Br14  1  0.50023304  0.76312085  0.00079955  1
  Br  Br15  1  0.76280375  0.49960843  0.26364894  1
  Br  Br16  1  0.23633189  0.49966455  0.26279134  1
  Br  Br17  1  0.00021754  0.73680196  0.49917050  1
  Br  Br18  1  0.23733767  0.50024808  0.73646313  1
  Br  Br19  1  0.76351864  0.50032486  0.73732695  1
