# generated using pymatgen
data_Cs2BaMgBr6
_symmetry_space_group_name_H-M   'P 1'
_cell_length_a   8.13776432
_cell_length_b   11.50747793
_cell_length_c   8.13785298
_cell_angle_alpha   89.99401135
_cell_angle_beta   89.99997882
_cell_angle_gamma   89.99984345
_symmetry_Int_Tables_number   1
_chemical_formula_structural   Cs2BaMgBr6
_chemical_formula_sum   'Cs4 Ba2 Mg2 Br12'
_cell_volume   762.07040440
_cell_formula_units_Z   2
loop_
 _symmetry_equiv_pos_site_id
 _symmetry_equiv_pos_as_xyz
  1  'x, y, z'
loop_
 _atom_site_type_symbol
 _atom_site_label
 _atom_site_symmetry_multiplicity
 _atom_site_fract_x
 _atom_site_fract_y
 _atom_site_fract_z
 _atom_site_occupancy
  Cs  Cs0  1  0.49979182  0.24971590  0.49982221  1
  Cs  Cs1  1  0.99978764  0.25020475  0.00016424  1
  Cs  Cs2  1  0.50020315  0.74971525  0.50017778  1
  Cs  Cs3  1  0.00020788  0.75020393  0.99980069  1
  Mg  Mg4  1  0.49999870  0.99995768  0.99980830  1
  Mg  Mg5  1  0.99999627  0.49996723  0.50016985  1
  Ba  Ba6  1  0.99999813  0.99996849  0.49979474  1
  Ba  Ba7  1  0.49999545  0.49995872  0.00018351  1
  Br  Br8  1  0.49975726  0.23030312  0.99906762  1
  Br  Br9  1  0.26924527  0.00033608  0.22985211  1
  Br  Br10  1  0.72985970  0.00029563  0.23074448  1
  Br  Br11  1  0.99977279  0.26962189  0.50091097  1
  Br  Br12  1  0.26998079  0.99955186  0.76909133  1
  Br  Br13  1  0.73090079  0.99965484  0.76997836  1
  Br  Br14  1  0.50023706  0.76961458  0.00083363  1
  Br  Br15  1  0.76923778  0.49958122  0.27013061  1
  Br  Br16  1  0.22985358  0.49963142  0.26923010  1
  Br  Br17  1  0.00022037  0.73031033  0.49913671  1
  Br  Br18  1  0.23090771  0.50027110  0.72999224  1
  Br  Br19  1  0.76999323  0.50036029  0.73089935  1
