# generated using pymatgen
data_Cs2MgGeBr6
_symmetry_space_group_name_H-M   'P 1'
_cell_length_a   7.74876052
_cell_length_b   10.95549732
_cell_length_c   7.74877683
_cell_angle_alpha   89.99760370
_cell_angle_beta   89.99999038
_cell_angle_gamma   89.99997225
_symmetry_Int_Tables_number   1
_chemical_formula_structural   Cs2MgGeBr6
_chemical_formula_sum   'Cs4 Mg2 Ge2 Br12'
_cell_volume   657.80548253
_cell_formula_units_Z   2
loop_
 _symmetry_equiv_pos_site_id
 _symmetry_equiv_pos_as_xyz
  1  'x, y, z'
loop_
 _atom_site_type_symbol
 _atom_site_label
 _atom_site_symmetry_multiplicity
 _atom_site_fract_x
 _atom_site_fract_y
 _atom_site_fract_z
 _atom_site_occupancy
  Cs  Cs0  1  0.49981134  0.24975237  0.49983241  1
  Cs  Cs1  1  0.99980737  0.25016901  0.00015345  1
  Cs  Cs2  1  0.50018369  0.74975201  0.50015709  1
  Cs  Cs3  1  0.00018823  0.75016812  0.99982122  1
  Mg  Mg4  1  0.49999908  0.99995690  0.99978991  1
  Mg  Mg5  1  0.99999610  0.49996653  0.50018814  1
  Ge  Ge6  1  0.99999819  0.99996637  0.49979208  1
  Ge  Ge7  1  0.49999529  0.49995702  0.00018599  1
  Br  Br8  1  0.49978073  0.24517159  0.99920441  1
  Br  Br9  1  0.25438316  0.00028454  0.24481598  1
  Br  Br10  1  0.74483053  0.00023665  0.24559954  1
  Br  Br11  1  0.99979518  0.25475174  0.50077486  1
  Br  Br12  1  0.25506187  0.99962619  0.75427270  1
  Br  Br13  1  0.74571063  0.99969743  0.75505120  1
  Br  Br14  1  0.50021335  0.75474650  0.00075863  1
  Br  Br15  1  0.75437649  0.49963519  0.25516637  1
  Br  Br16  1  0.24482526  0.49969113  0.25437585  1
  Br  Br17  1  0.00019910  0.74517664  0.49921206  1
  Br  Br18  1  0.24571669  0.50022926  0.74492137  1
  Br  Br19  1  0.75507308  0.50028913  0.74571555  1
