# generated using pymatgen
data_Cs2MgZnBr6
_symmetry_space_group_name_H-M   'P 1'
_cell_length_a   7.60572254
_cell_length_b   10.76179443
_cell_length_c   7.60575701
_cell_angle_alpha   89.99976298
_cell_angle_beta   90.00000286
_cell_angle_gamma   89.99998731
_symmetry_Int_Tables_number   1
_chemical_formula_structural   Cs2MgZnBr6
_chemical_formula_sum   'Cs4 Mg2 Zn2 Br12'
_cell_volume   622.54050918
_cell_formula_units_Z   2
loop_
 _symmetry_equiv_pos_site_id
 _symmetry_equiv_pos_as_xyz
  1  'x, y, z'
loop_
 _atom_site_type_symbol
 _atom_site_label
 _atom_site_symmetry_multiplicity
 _atom_site_fract_x
 _atom_site_fract_y
 _atom_site_fract_z
 _atom_site_occupancy
  Cs  Cs0  1  0.49978755  0.24973012  0.49979860  1
  Cs  Cs1  1  0.99978292  0.25018960  0.00018661  1
  Cs  Cs2  1  0.50020704  0.74972932  0.50017447  1
  Cs  Cs3  1  0.00021244  0.75018896  0.99980255  1
  Mg  Mg4  1  0.49999935  0.99995663  0.99978393  1
  Mg  Mg5  1  0.99999608  0.49996722  0.50019477  1
  Zn  Zn6  1  0.99999843  0.99997163  0.49979714  1
  Zn  Zn7  1  0.49999551  0.49996188  0.00018356  1
  Br  Br8  1  0.49977472  0.25189790  0.99921293  1
  Br  Br9  1  0.24774200  0.00029800  0.25143876  1
  Br  Br10  1  0.75144713  0.00023651  0.25224422  1
  Br  Br11  1  0.99978938  0.24802493  0.50076666  1
  Br  Br12  1  0.24844233  0.99962032  0.74763469  1
  Br  Br13  1  0.75235436  0.99968773  0.74843536  1
  Br  Br14  1  0.50021894  0.74802027  0.00076624  1
  Br  Br15  1  0.74773598  0.49962035  0.24854533  1
  Br  Br16  1  0.25144129  0.49968998  0.24772883  1
  Br  Br17  1  0.00020499  0.75190254  0.49920433  1
  Br  Br18  1  0.25236060  0.50023730  0.75153426  1
  Br  Br19  1  0.74845435  0.50029311  0.75235557  1
