# generated using pymatgen
data_SrCdH12C2(I3N)2
_symmetry_space_group_name_H-M   'P 1'
_cell_length_a   8.50666016
_cell_length_b   12.35129018
_cell_length_c   8.38775441
_cell_angle_alpha   90.81668998
_cell_angle_beta   90.01155361
_cell_angle_gamma   89.99319649
_symmetry_Int_Tables_number   1
_chemical_formula_structural   SrCdH12C2(I3N)2
_chemical_formula_sum   'Sr2 Cd2 H24 C4 I12 N4'
_cell_volume   881.19694366
_cell_formula_units_Z   2
loop_
 _symmetry_equiv_pos_site_id
 _symmetry_equiv_pos_as_xyz
  1  'x, y, z'
loop_
 _atom_site_type_symbol
 _atom_site_label
 _atom_site_symmetry_multiplicity
 _atom_site_fract_x
 _atom_site_fract_y
 _atom_site_fract_z
 _atom_site_occupancy
  C  C0  1  0.39553374  0.24996215  0.41487319  1
  C  C1  1  0.89679538  0.25027876  0.08633777  1
  C  C2  1  0.60446350  0.75004089  0.58514061  1
  C  C3  1  0.10321210  0.74972221  0.91367656  1
  N  N4  1  0.53538159  0.25024351  0.52044936  1
  N  N5  1  0.03591662  0.24982071  0.97984556  1
  N  N6  1  0.46461482  0.74975960  0.47956574  1
  N  N7  1  0.96409269  0.75017707  0.02017128  1
  H  H8  1  0.43522104  0.24994093  0.29063392  1
  H  H9  1  0.32562264  0.17760706  0.43800871  1
  H  H10  1  0.32678217  0.32305459  0.43972414  1
  H  H11  1  0.60402383  0.18183886  0.49776539  1
  H  H12  1  0.60400126  0.31808564  0.49783621  1
  H  H13  1  0.50537308  0.25143799  0.64129884  1
  H  H14  1  0.93733692  0.25034897  0.21028670  1
  H  H15  1  0.82776182  0.17722246  0.06208262  1
  H  H16  1  0.82682321  0.32269283  0.06357882  1
  H  H17  1  0.10458737  0.18191564  0.00213077  1
  H  H18  1  0.10480542  0.31817510  0.00209389  1
  H  H19  1  0.00519330  0.24861233  0.85921150  1
  H  H20  1  0.56477680  0.75006344  0.70938041  1
  H  H21  1  0.67321383  0.67694812  0.56029067  1
  H  H22  1  0.67437548  0.82239563  0.56200429  1
  H  H23  1  0.39597328  0.81816421  0.50225025  1
  H  H24  1  0.39599513  0.68191731  0.50217894  1
  H  H25  1  0.49462294  0.74856561  0.35871606  1
  H  H26  1  0.06266880  0.74965403  0.78972851  1
  H  H27  1  0.17224576  0.82277817  0.93793466  1
  H  H28  1  0.17318489  0.67730789  0.93643120  1
  H  H29  1  0.89541901  0.81808094  0.99788892  1
  H  H30  1  0.89520579  0.68182157  0.99792190  1
  H  H31  1  0.99481761  0.75138471  0.14080477  1
  Sr  Sr32  1  0.50000155  0.00000877  0.00000877  1
  Sr  Sr33  1  0.99998857  0.50000141  0.49999134  1
  Cd  Cd34  1  0.00000178  0.00000240  0.50001331  1
  Cd  Cd35  1  0.49999619  0.50001180  0.99998788  1
  I  I36  1  0.47364805  0.25771559  0.94006645  1
  I  I37  1  0.16820278  0.01796537  0.18600209  1
  I  I38  1  0.69036424  0.01192939  0.33388158  1
  I  I39  1  0.97303762  0.24230020  0.56051983  1
  I  I40  1  0.30964360  0.98807652  0.66613327  1
  I  I41  1  0.83180211  0.98203437  0.81401821  1
  I  I42  1  0.52635519  0.74229829  0.05994450  1
  I  I43  1  0.66810552  0.48191288  0.31400029  1
  I  I44  1  0.19040313  0.48826348  0.16613261  1
  I  I45  1  0.02696125  0.75770471  0.43949829  1
  I  I46  1  0.33187587  0.51809043  0.68599103  1
  I  I47  1  0.80959446  0.51174373  0.83386495  1
