# generated using pymatgen
data_Cs2AlTlBr6
_symmetry_space_group_name_H-M   'P 1'
_cell_length_a   8.02478738
_cell_length_b   11.34277463
_cell_length_c   8.02476604
_cell_angle_alpha   89.98986927
_cell_angle_beta   89.99999243
_cell_angle_gamma   89.99975986
_symmetry_Int_Tables_number   1
_chemical_formula_structural   Cs2AlTlBr6
_chemical_formula_sum   'Cs4 Al2 Tl2 Br12'
_cell_volume   730.44111414
_cell_formula_units_Z   2
loop_
 _symmetry_equiv_pos_site_id
 _symmetry_equiv_pos_as_xyz
  1  'x, y, z'
loop_
 _atom_site_type_symbol
 _atom_site_label
 _atom_site_symmetry_multiplicity
 _atom_site_fract_x
 _atom_site_fract_y
 _atom_site_fract_z
 _atom_site_occupancy
  Cs  Cs0  1  0.49985775  0.24985641  0.49985366  1
  Cs  Cs1  1  0.99985462  0.25006421  0.00013016  1
  Cs  Cs2  1  0.50013700  0.74985798  0.50011562  1
  Cs  Cs3  1  0.00014099  0.75006538  0.99986333  1
  Al  Al4  1  0.49999791  0.99996039  0.99987668  1
  Al  Al5  1  0.99999648  0.49996375  0.50010090  1
  Tl  Tl6  1  0.99999829  0.99996543  0.49981618  1
  Tl  Tl7  1  0.49999523  0.49996018  0.00015915  1
  Br  Br8  1  0.49988306  0.22271336  0.99943712  1
  Br  Br9  1  0.27702628  0.00012051  0.22240236  1
  Br  Br10  1  0.72246491  0.00015601  0.22290614  1
  Br  Br11  1  0.99988837  0.27720820  0.50054367  1
  Br  Br12  1  0.27748312  0.99974152  0.77691824  1
  Br  Br13  1  0.72301442  0.99982147  0.77741924  1
  Br  Br14  1  0.50011377  0.77720545  0.00038553  1
  Br  Br15  1  0.77702032  0.49979996  0.27758135  1
  Br  Br16  1  0.22246035  0.49976643  0.27706795  1
  Br  Br17  1  0.00010427  0.72271665  0.49959183  1
  Br  Br18  1  0.22301882  0.50010218  0.72255206  1
  Br  Br19  1  0.77748941  0.50017886  0.72306767  1
