# generated using pymatgen
data_Cs2YAlBr6
_symmetry_space_group_name_H-M   'P 1'
_cell_length_a   8.15334904
_cell_length_b   11.52646594
_cell_length_c   8.15333503
_cell_angle_alpha   90.01050663
_cell_angle_beta   89.99999033
_cell_angle_gamma   90.00007158
_symmetry_Int_Tables_number   1
_chemical_formula_structural   Cs2YAlBr6
_chemical_formula_sum   'Cs4 Y2 Al2 Br12'
_cell_volume   766.24470591
_cell_formula_units_Z   2
loop_
 _symmetry_equiv_pos_site_id
 _symmetry_equiv_pos_as_xyz
  1  'x, y, z'
loop_
 _atom_site_type_symbol
 _atom_site_label
 _atom_site_symmetry_multiplicity
 _atom_site_fract_x
 _atom_site_fract_y
 _atom_site_fract_z
 _atom_site_occupancy
  Cs  Cs0  1  0.49986696  0.24985653  0.49986909  1
  Cs  Cs1  1  0.99986439  0.25006935  0.00011576  1
  Cs  Cs2  1  0.50012822  0.74985648  0.50012898  1
  Cs  Cs3  1  0.00013125  0.75006988  0.99985149  1
  Al  Al4  1  0.49999848  0.99996018  0.99980703  1
  Al  Al5  1  0.99999614  0.49996563  0.50016720  1
  Y  Y6  1  0.99999757  0.99996331  0.49986663  1
  Y  Y7  1  0.49999645  0.49995944  0.00011012  1
  Br  Br8  1  0.49986569  0.25789845  0.99951200  1
  Br  Br9  1  0.24174385  0.00019028  0.25758966  1
  Br  Br10  1  0.75764764  0.00013194  0.25819323  1
  Br  Br11  1  0.99987476  0.24202387  0.50047021  1
  Br  Br12  1  0.24228506  0.99975795  0.74162498  1
  Br  Br13  1  0.75831332  0.99976112  0.74222879  1
  Br  Br14  1  0.50012961  0.74202051  0.00051783  1
  Br  Br15  1  0.74173665  0.49972611  0.24239296  1
  Br  Br16  1  0.25764271  0.49979200  0.24177960  1
  Br  Br17  1  0.00011912  0.75790191  0.49946008  1
  Br  Br18  1  0.25831592  0.50016284  0.75774456  1
  Br  Br19  1  0.74229159  0.50015654  0.75835863  1
