# generated using pymatgen
data_Cs2BaSiBr6
_symmetry_space_group_name_H-M   'P 1'
_cell_length_a   8.26856260
_cell_length_b   11.69039217
_cell_length_c   8.26858871
_cell_angle_alpha   89.99752923
_cell_angle_beta   89.99999861
_cell_angle_gamma   89.99995148
_symmetry_Int_Tables_number   1
_chemical_formula_structural   Cs2BaSiBr6
_chemical_formula_sum   'Cs4 Ba2 Si2 Br12'
_cell_volume   799.26443620
_cell_formula_units_Z   2
loop_
 _symmetry_equiv_pos_site_id
 _symmetry_equiv_pos_as_xyz
  1  'x, y, z'
loop_
 _atom_site_type_symbol
 _atom_site_label
 _atom_site_symmetry_multiplicity
 _atom_site_fract_x
 _atom_site_fract_y
 _atom_site_fract_z
 _atom_site_occupancy
  Cs  Cs0  1  0.49979808  0.24971104  0.49982964  1
  Cs  Cs1  1  0.99979384  0.25020985  0.00015660  1
  Cs  Cs2  1  0.50019724  0.74971049  0.50017647  1
  Cs  Cs3  1  0.00020193  0.75020883  0.99980193  1
  Si  Si4  1  0.49999855  0.99995803  0.99982716  1
  Si  Si5  1  0.99999667  0.49996647  0.50015039  1
  Ba  Ba6  1  0.99999845  0.99996829  0.49978849  1
  Ba  Ba7  1  0.49999555  0.49995838  0.00018895  1
  Br  Br8  1  0.49976513  0.23310529  0.99912836  1
  Br  Br9  1  0.26646492  0.00034084  0.23266436  1
  Br  Br10  1  0.73266476  0.00028580  0.23353217  1
  Br  Br11  1  0.99978017  0.26681971  0.50085116  1
  Br  Br12  1  0.26715066  0.99955882  0.76629348  1
  Br  Br13  1  0.73370586  0.99965434  0.76715395  1
  Br  Br14  1  0.50022920  0.76681103  0.00079672  1
  Br  Br15  1  0.76645717  0.49957702  0.26731853  1
  Br  Br16  1  0.23265839  0.49964140  0.26644249  1
  Br  Br17  1  0.00021403  0.73311378  0.49917379  1
  Br  Br18  1  0.23371196  0.50027157  0.73281626  1
  Br  Br19  1  0.76716282  0.50035336  0.73369790  1
