# generated using pymatgen
data_SrH12PdC2(I3N)2
_symmetry_space_group_name_H-M   'P 1'
_cell_length_a   8.16594095
_cell_length_b   13.26481402
_cell_length_c   8.04482645
_cell_angle_alpha   88.71761937
_cell_angle_beta   89.99820293
_cell_angle_gamma   89.97768790
_symmetry_Int_Tables_number   1
_chemical_formula_structural   SrH12PdC2(I3N)2
_chemical_formula_sum   'Sr2 H24 Pd2 C4 I12 N4'
_cell_volume   871.19477031
_cell_formula_units_Z   2
loop_
 _symmetry_equiv_pos_site_id
 _symmetry_equiv_pos_as_xyz
  1  'x, y, z'
loop_
 _atom_site_type_symbol
 _atom_site_label
 _atom_site_symmetry_multiplicity
 _atom_site_fract_x
 _atom_site_fract_y
 _atom_site_fract_z
 _atom_site_occupancy
  C  C0  1  0.39894989  0.25236434  0.41277121  1
  C  C1  1  0.89971352  0.24778182  0.08789056  1
  C  C2  1  0.60104890  0.74763970  0.58723919  1
  C  C3  1  0.10028928  0.75222334  0.91212007  1
  N  N4  1  0.54802490  0.24944052  0.51751082  1
  N  N5  1  0.04828755  0.25053996  0.98242992  1
  N  N6  1  0.45197184  0.75056636  0.48249938  1
  N  N7  1  0.95171629  0.74945974  0.01758179  1
  H  H8  1  0.43551910  0.25303772  0.28171755  1
  H  H9  1  0.32401368  0.18592927  0.44226796  1
  H  H10  1  0.33057771  0.32102180  0.43948473  1
  H  H11  1  0.61790329  0.18560773  0.49442813  1
  H  H12  1  0.62199490  0.31150744  0.49302120  1
  H  H13  1  0.52018543  0.24828838  0.64521070  1
  H  H14  1  0.93690100  0.24718690  0.21875535  1
  H  H15  1  0.83107998  0.17917559  0.06166849  1
  H  H16  1  0.82475084  0.31427980  0.05864727  1
  H  H17  1  0.12226659  0.18841832  0.00666903  1
  H  H18  1  0.11837463  0.31432137  0.00513142  1
  H  H19  1  0.01989310  0.25165971  0.85485776  1
  H  H20  1  0.56447848  0.74696650  0.71829348  1
  H  H21  1  0.66941822  0.67898246  0.56052438  1
  H  H22  1  0.67598615  0.81407495  0.55774382  1
  H  H23  1  0.38209748  0.81440002  0.50558270  1
  H  H24  1  0.37800050  0.68850148  0.50698754  1
  H  H25  1  0.47981289  0.75171852  0.35480004  1
  H  H26  1  0.06310069  0.75282009  0.78125555  1
  H  H27  1  0.16891868  0.82083066  0.93834504  1
  H  H28  1  0.17525626  0.68572659  0.94135909  1
  H  H29  1  0.87773249  0.81157972  0.99334616  1
  H  H30  1  0.88163320  0.68567685  0.99487822  1
  H  H31  1  0.98011133  0.74833894  0.14515386  1
  Sr  Sr32  1  0.50000007  0.99999980  0.00000717  1
  Sr  Sr33  1  0.00000271  0.50000103  0.50000947  1
  Pd  Pd34  1  1.00000216  0.00000126  0.50000288  1
  Pd  Pd35  1  0.49999888  0.49999968  0.00002288  1
  I  I36  1  0.47219472  0.23420905  0.93864707  1
  I  I37  1  0.14536506  0.01203144  0.20248352  1
  I  I38  1  0.70659849  0.01586767  0.35633624  1
  I  I39  1  0.97157541  0.26582581  0.56168015  1
  I  I40  1  0.29340050  0.98413724  0.64367732  1
  I  I41  1  0.85463491  0.98797003  0.79752968  1
  I  I42  1  0.52780947  0.76579055  0.06136363  1
  I  I43  1  0.64531934  0.48797305  0.29754905  1
  I  I44  1  0.20657456  0.48411844  0.14362362  1
  I  I45  1  0.02842365  0.73417612  0.43833268  1
  I  I46  1  0.35468752  0.51202817  0.70246678  1
  I  I47  1  0.79342748  0.51588236  0.85639207  1
