# generated using pymatgen
data_Cs2CaSiBr6
_symmetry_space_group_name_H-M   'P 1'
_cell_length_a   7.93552693
_cell_length_b   11.21806928
_cell_length_c   7.93554998
_cell_angle_alpha   90.00038492
_cell_angle_beta   90.00000403
_cell_angle_gamma   90.00003352
_symmetry_Int_Tables_number   1
_chemical_formula_structural   Cs2CaSiBr6
_chemical_formula_sum   'Cs4 Ca2 Si2 Br12'
_cell_volume   706.43290307
_cell_formula_units_Z   2
loop_
 _symmetry_equiv_pos_site_id
 _symmetry_equiv_pos_as_xyz
  1  'x, y, z'
loop_
 _atom_site_type_symbol
 _atom_site_label
 _atom_site_symmetry_multiplicity
 _atom_site_fract_x
 _atom_site_fract_y
 _atom_site_fract_z
 _atom_site_occupancy
  Cs  Cs0  1  0.49981770  0.24977372  0.49984695  1
  Cs  Cs1  1  0.99981369  0.25014916  0.00013817  1
  Cs  Cs2  1  0.50017743  0.74977257  0.50014874  1
  Cs  Cs3  1  0.00018167  0.75014835  0.99982911  1
  Si  Si4  1  0.49999879  0.99995744  0.99982885  1
  Si  Si5  1  0.99999641  0.49996572  0.50014940  1
  Ca  Ca6  1  0.99999811  0.99996560  0.49982372  1
  Ca  Ca7  1  0.49999566  0.49995756  0.00015451  1
  Br  Br8  1  0.49978555  0.24400609  0.99920429  1
  Br  Br9  1  0.25559636  0.00028979  0.24358051  1
  Br  Br10  1  0.74360076  0.00024340  0.24437993  1
  Br  Br11  1  0.99979991  0.25591526  0.50077612  1
  Br  Br12  1  0.25627183  0.99962012  0.75545963  1
  Br  Br13  1  0.74451833  0.99969113  0.75625484  1
  Br  Br14  1  0.50020875  0.75590964  0.00075005  1
  Br  Br15  1  0.75558913  0.49963009  0.25640203  1
  Br  Br16  1  0.24359544  0.49968486  0.25559465  1
  Br  Br17  1  0.00019487  0.74401218  0.49922091  1
  Br  Br18  1  0.24452284  0.50023635  0.74371680  1
  Br  Br19  1  0.75628214  0.50029530  0.74452959  1
