# generated using pymatgen
data_Cs2TlPBr6
_symmetry_space_group_name_H-M   'P 1'
_cell_length_a   8.02437521
_cell_length_b   11.34383862
_cell_length_c   8.02436464
_cell_angle_alpha   89.98872761
_cell_angle_beta   90.00003303
_cell_angle_gamma   89.99963105
_symmetry_Int_Tables_number   1
_chemical_formula_structural   Cs2TlPBr6
_chemical_formula_sum   'Cs4 Tl2 P2 Br12'
_cell_volume   730.43557021
_cell_formula_units_Z   2
loop_
 _symmetry_equiv_pos_site_id
 _symmetry_equiv_pos_as_xyz
  1  'x, y, z'
loop_
 _atom_site_type_symbol
 _atom_site_label
 _atom_site_symmetry_multiplicity
 _atom_site_fract_x
 _atom_site_fract_y
 _atom_site_fract_z
 _atom_site_occupancy
  Cs  Cs0  1  0.49980236  0.24979496  0.49978824  1
  Cs  Cs1  1  0.99979639  0.25012333  0.00019627  1
  Cs  Cs2  1  0.50019214  0.74979716  0.50017022  1
  Cs  Cs3  1  0.00019901  0.75012598  0.99980669  1
  P  P4  1  0.49999718  0.99996231  0.99984542  1
  P  P5  1  0.99999706  0.49996730  0.50013187  1
  Tl  Tl6  1  0.99999697  0.99997219  0.49979209  1
  Tl  Tl7  1  0.49999639  0.49996351  0.00018435  1
  Br  Br8  1  0.49985548  0.22768630  0.99935878  1
  Br  Br9  1  0.27203149  0.00017613  0.22732753  1
  Br  Br10  1  0.72738838  0.00018730  0.22790278  1
  Br  Br11  1  0.99986216  0.27223260  0.50062207  1
  Br  Br12  1  0.27257454  0.99969598  0.77194217  1
  Br  Br13  1  0.72799281  0.99977635  0.77251482  1
  Br  Br14  1  0.50014051  0.77222873  0.00048219  1
  Br  Br15  1  0.77202615  0.49974345  0.27265574  1
  Br  Br16  1  0.22738518  0.49973269  0.27207238  1
  Br  Br17  1  0.00013104  0.72769147  0.49949293  1
  Br  Br18  1  0.22799850  0.50014359  0.72745878  1
  Br  Br19  1  0.77258164  0.50022300  0.72804350  1
