# generated using pymatgen
data_Cs2AgPBr6
_symmetry_space_group_name_H-M   'P 1'
_cell_length_a   7.70944747
_cell_length_b   10.89886013
_cell_length_c   7.70946794
_cell_angle_alpha   89.99155011
_cell_angle_beta   90.00001792
_cell_angle_gamma   89.99987382
_symmetry_Int_Tables_number   1
_chemical_formula_structural   Cs2AgPBr6
_chemical_formula_sum   'Cs4 Ag2 P2 Br12'
_cell_volume   647.78178916
_cell_formula_units_Z   2
loop_
 _symmetry_equiv_pos_site_id
 _symmetry_equiv_pos_as_xyz
  1  'x, y, z'
loop_
 _atom_site_type_symbol
 _atom_site_label
 _atom_site_symmetry_multiplicity
 _atom_site_fract_x
 _atom_site_fract_y
 _atom_site_fract_z
 _atom_site_occupancy
  Cs  Cs0  1  0.49979067  0.24973897  0.49980568  1
  Cs  Cs1  1  0.99978620  0.25018199  0.00018007  1
  Cs  Cs2  1  0.50020399  0.74973837  0.50017121  1
  Cs  Cs3  1  0.00020931  0.75018118  0.99980637  1
  P  P4  1  0.49999823  0.99995769  0.99984385  1
  P  P5  1  0.99999681  0.49996501  0.50013417  1
  Ag  Ag6  1  0.99999837  0.99996706  0.49976896  1
  Ag  Ag7  1  0.49999511  0.49995590  0.00020844  1
  Br  Br8  1  0.49978277  0.23916523  0.99921634  1
  Br  Br9  1  0.26057175  0.00026333  0.23863016  1
  Br  Br10  1  0.73865223  0.00023231  0.23940208  1
  Br  Br11  1  0.99979633  0.26075911  0.50076373  1
  Br  Br12  1  0.26122193  0.99962924  0.76043536  1
  Br  Br13  1  0.73954126  0.99971737  0.76120278  1
  Br  Br14  1  0.50021176  0.76075284  0.00070115  1
  Br  Br15  1  0.76056474  0.49965656  0.26135315  1
  Br  Br16  1  0.23864648  0.49969512  0.26057155  1
  Br  Br17  1  0.00019776  0.73917129  0.49927095  1
  Br  Br18  1  0.23954675  0.50020927  0.73876822  1
  Br  Br19  1  0.76123293  0.50028649  0.73955458  1
