# generated using pymatgen
data_Cs2CaOsBr6
_symmetry_space_group_name_H-M   'P 1'
_cell_length_a   7.67736733
_cell_length_b   10.85436849
_cell_length_c   7.67740195
_cell_angle_alpha   90.00161804
_cell_angle_beta   89.99998293
_cell_angle_gamma   90.00002147
_symmetry_Int_Tables_number   1
_chemical_formula_structural   Cs2CaOsBr6
_chemical_formula_sum   'Cs4 Ca2 Os2 Br12'
_cell_volume   639.78073668
_cell_formula_units_Z   2
loop_
 _symmetry_equiv_pos_site_id
 _symmetry_equiv_pos_as_xyz
  1  'x, y, z'
loop_
 _atom_site_type_symbol
 _atom_site_label
 _atom_site_symmetry_multiplicity
 _atom_site_fract_x
 _atom_site_fract_y
 _atom_site_fract_z
 _atom_site_occupancy
  Cs  Cs0  1  0.49979871  0.24975391  0.49980071  1
  Cs  Cs1  1  0.99979519  0.25016910  0.00018522  1
  Cs  Cs2  1  0.50019513  0.74975170  0.50014547  1
  Cs  Cs3  1  0.00020056  0.75016746  0.99983163  1
  Ca  Ca4  1  0.49999890  0.99995795  0.99981531  1
  Ca  Ca5  1  0.99999615  0.49996591  0.50016241  1
  Os  Os6  1  0.99999753  0.99996444  0.49987920  1
  Os  Os7  1  0.49999676  0.49995964  0.00009875  1
  Br  Br8  1  0.49977302  0.26419807  0.99924115  1
  Br  Br9  1  0.23545019  0.00029926  0.26372646  1
  Br  Br10  1  0.76375142  0.00023335  0.26452192  1
  Br  Br11  1  0.99978810  0.23572589  0.50073974  1
  Br  Br12  1  0.23612568  0.99963389  0.73531324  1
  Br  Br13  1  0.76466036  0.99968016  0.73610423  1
  Br  Br14  1  0.50021996  0.73571999  0.00080440  1
  Br  Br15  1  0.73544341  0.49961973  0.23625642  1
  Br  Br16  1  0.26374527  0.49969394  0.23545294  1
  Br  Br17  1  0.00020648  0.76420428  0.49916675  1
  Br  Br18  1  0.26466594  0.50024566  0.76386748  1
  Br  Br19  1  0.73613660  0.50027999  0.76467537  1
