# generated using pymatgen
data_SrH12RuC2(I3N)2
_symmetry_space_group_name_H-M   'P 1'
_cell_length_a   8.28098632
_cell_length_b   11.89873384
_cell_length_c   8.17602891
_cell_angle_alpha   92.17731417
_cell_angle_beta   90.00499286
_cell_angle_gamma   89.98571228
_symmetry_Int_Tables_number   1
_chemical_formula_structural   SrH12RuC2(I3N)2
_chemical_formula_sum   'Sr2 H24 Ru2 C4 I12 N4'
_cell_volume   805.02906941
_cell_formula_units_Z   2
loop_
 _symmetry_equiv_pos_site_id
 _symmetry_equiv_pos_as_xyz
  1  'x, y, z'
loop_
 _atom_site_type_symbol
 _atom_site_label
 _atom_site_symmetry_multiplicity
 _atom_site_fract_x
 _atom_site_fract_y
 _atom_site_fract_z
 _atom_site_occupancy
  C  C0  1  0.39587669  0.25036806  0.41331719  1
  C  C1  1  0.89700225  0.24987194  0.08770829  1
  C  C2  1  0.60412083  0.74963459  0.58669472  1
  C  C3  1  0.10300272  0.75013030  0.91230524  1
  N  N4  1  0.53878199  0.25113530  0.52179392  1
  N  N5  1  0.03921173  0.24889689  0.97832937  1
  N  N6  1  0.46121628  0.74887160  0.47821729  1
  N  N7  1  0.96079474  0.75110123  0.02168620  1
  H  H8  1  0.43673079  0.24888670  0.28591270  1
  H  H9  1  0.32314903  0.17610882  0.43648077  1
  H  H10  1  0.32623088  0.32697644  0.43949096  1
  H  H11  1  0.60863631  0.17950911  0.49800171  1
  H  H12  1  0.60994403  0.32071807  0.49940189  1
  H  H13  1  0.50743342  0.25418507  0.64582462  1
  H  H14  1  0.93867751  0.25141341  0.21482811  1
  H  H15  1  0.82712090  0.17328740  0.06215561  1
  H  H16  1  0.82417875  0.32417306  0.06490179  1
  H  H17  1  0.11044445  0.17926361  0.00039573  1
  H  H18  1  0.10927994  0.32048072  0.00169249  1
  H  H19  1  0.00717019  0.24583745  0.85451110  1
  H  H20  1  0.56326722  0.75111720  0.71409878  1
  H  H21  1  0.67376502  0.67302681  0.56052055  1
  H  H22  1  0.67685090  0.82389461  0.56353114  1
  H  H23  1  0.39136308  0.82049645  0.50201104  1
  H  H24  1  0.39005202  0.67928732  0.50061006  1
  H  H25  1  0.49256390  0.74582059  0.35418759  1
  H  H26  1  0.06132592  0.74859106  0.78518598  1
  H  H27  1  0.17288303  0.82671504  0.93786088  1
  H  H28  1  0.17582818  0.67582942  0.93510712  1
  H  H29  1  0.88955879  0.82073316  0.99962330  1
  H  H30  1  0.89072918  0.67951619  0.99832180  1
  H  H31  1  0.99283814  0.75415963  0.14550383  1
  Sr  Sr32  1  0.50000248  0.00000416  0.00000708  1
  Sr  Sr33  1  0.99999675  0.50000212  0.50000149  1
  Ru  Ru34  1  0.00000100  0.00000240  0.50000776  1
  Ru  Ru35  1  0.49999798  0.50000362  0.00000227  1
  I  I36  1  0.47427084  0.27136551  0.94650430  1
  I  I37  1  0.16156657  0.01432655  0.20586116  1
  I  I38  1  0.71032390  0.00330126  0.33611354  1
  I  I39  1  0.97359252  0.22860920  0.55399757  1
  I  I40  1  0.28967806  0.99670389  0.66390273  1
  I  I41  1  0.83843765  0.98567507  0.79415473  1
  I  I42  1  0.52573010  0.72864193  0.05350509  1
  I  I43  1  0.66142169  0.48566832  0.29419124  1
  I  I44  1  0.21027942  0.49680861  0.16379909  1
  I  I45  1  0.02640737  0.77139530  0.44601868  1
  I  I46  1  0.33857264  0.51433673  0.70581272  1
  I  I47  1  0.78971593  0.50319635  0.83620537  1
