# generated using pymatgen
data_Cs2CaRuBr6
_symmetry_space_group_name_H-M   'P 1'
_cell_length_a   7.67441352
_cell_length_b   10.85053133
_cell_length_c   7.67444068
_cell_angle_alpha   90.00387509
_cell_angle_beta   89.99996927
_cell_angle_gamma   90.00002323
_symmetry_Int_Tables_number   1
_chemical_formula_structural   Cs2CaRuBr6
_chemical_formula_sum   'Cs4 Ca2 Ru2 Br12'
_cell_volume   639.06191192
_cell_formula_units_Z   2
loop_
 _symmetry_equiv_pos_site_id
 _symmetry_equiv_pos_as_xyz
  1  'x, y, z'
loop_
 _atom_site_type_symbol
 _atom_site_label
 _atom_site_symmetry_multiplicity
 _atom_site_fract_x
 _atom_site_fract_y
 _atom_site_fract_z
 _atom_site_occupancy
  Cs  Cs0  1  0.49981115  0.24975660  0.49981307  1
  Cs  Cs1  1  0.99980676  0.25016966  0.00017298  1
  Cs  Cs2  1  0.50018394  0.74975001  0.50013663  1
  Cs  Cs3  1  0.00018895  0.75016396  0.99984143  1
  Ca  Ca4  1  0.49999886  0.99995826  0.99981762  1
  Ca  Ca5  1  0.99999614  0.49996605  0.50016032  1
  Ru  Ru6  1  0.99999750  0.99996408  0.49988022  1
  Ru  Ru7  1  0.49999656  0.49995924  0.00009789  1
  Br  Br8  1  0.49977122  0.26356242  0.99921951  1
  Br  Br9  1  0.23607278  0.00030601  0.26309515  1
  Br  Br10  1  0.76311888  0.00023729  0.26390097  1
  Br  Br11  1  0.99978675  0.23636257  0.50076043  1
  Br  Br12  1  0.23675624  0.99963007  0.73593485  1
  Br  Br13  1  0.76403967  0.99967358  0.73673608  1
  Br  Br14  1  0.50022162  0.73635612  0.00082077  1
  Br  Br15  1  0.73606524  0.49961337  0.23688773  1
  Br  Br16  1  0.26311304  0.49969038  0.23607340  1
  Br  Br17  1  0.00020737  0.76356792  0.49914982  1
  Br  Br18  1  0.26404577  0.50025240  0.76323558  1
  Br  Br19  1  0.73676695  0.50028432  0.76405436  1
