# generated using pymatgen
data_Cs2ScTlBr6
_symmetry_space_group_name_H-M   'P 1'
_cell_length_a   8.11823712
_cell_length_b   11.47961441
_cell_length_c   8.11828786
_cell_angle_alpha   89.99248029
_cell_angle_beta   90.00004557
_cell_angle_gamma   89.99982180
_symmetry_Int_Tables_number   1
_chemical_formula_structural   Cs2ScTlBr6
_chemical_formula_sum   'Cs4 Sc2 Tl2 Br12'
_cell_volume   756.57759414
_cell_formula_units_Z   2
loop_
 _symmetry_equiv_pos_site_id
 _symmetry_equiv_pos_as_xyz
  1  'x, y, z'
loop_
 _atom_site_type_symbol
 _atom_site_label
 _atom_site_symmetry_multiplicity
 _atom_site_fract_x
 _atom_site_fract_y
 _atom_site_fract_z
 _atom_site_occupancy
  Cs  Cs0  1  0.49982216  0.24978883  0.49982882  1
  Cs  Cs1  1  0.99981802  0.25013586  0.00015637  1
  Cs  Cs2  1  0.50017323  0.74979015  0.50014668  1
  Cs  Cs3  1  0.00017744  0.75013779  0.99983201  1
  Sc  Sc4  1  0.49999858  0.99995866  0.99985609  1
  Sc  Sc5  1  0.99999612  0.49996508  0.50012172  1
  Tl  Tl6  1  0.99999807  0.99996757  0.49980709  1
  Tl  Tl7  1  0.49999513  0.49995868  0.00017073  1
  Br  Br8  1  0.49983534  0.22911119  0.99925100  1
  Br  Br9  1  0.27049717  0.00022844  0.22872580  1
  Br  Br10  1  0.72878034  0.00025212  0.22944698  1
  Br  Br11  1  0.99984590  0.27081324  0.50072923  1
  Br  Br12  1  0.27113844  0.99961675  0.77036605  1
  Br  Br13  1  0.72957772  0.99973340  0.77108760  1
  Br  Br14  1  0.50016006  0.77080779  0.00059470  1
  Br  Br15  1  0.77048609  0.49968751  0.27125928  1
  Br  Br16  1  0.22877027  0.49966849  0.27052603  1
  Br  Br17  1  0.00014763  0.72911700  0.49938051  1
  Br  Br18  1  0.22958305  0.50018814  0.72888415  1
  Br  Br19  1  0.77114462  0.50029764  0.72961799  1
