# generated using pymatgen
data_Cs2ScAuBr6
_symmetry_space_group_name_H-M   'P 1'
_cell_length_a   7.77972718
_cell_length_b   10.99684206
_cell_length_c   7.77972915
_cell_angle_alpha   89.98915462
_cell_angle_beta   90.00082460
_cell_angle_gamma   89.99991493
_symmetry_Int_Tables_number   1
_chemical_formula_structural   Cs2ScAuBr6
_chemical_formula_sum   'Cs4 Sc2 Au2 Br12'
_cell_volume   665.57472961
_cell_formula_units_Z   2
loop_
 _symmetry_equiv_pos_site_id
 _symmetry_equiv_pos_as_xyz
  1  'x, y, z'
loop_
 _atom_site_type_symbol
 _atom_site_label
 _atom_site_symmetry_multiplicity
 _atom_site_fract_x
 _atom_site_fract_y
 _atom_site_fract_z
 _atom_site_occupancy
  Cs  Cs0  1  0.49982203  0.24981239  0.49980151  1
  Cs  Cs1  1  0.99981853  0.25010830  0.00018256  1
  Cs  Cs2  1  0.50017262  0.74981357  0.50015995  1
  Cs  Cs3  1  0.00017692  0.75010895  0.99981789  1
  Sc  Sc4  1  0.49999876  0.99995748  0.99987047  1
  Sc  Sc5  1  0.99999573  0.49996389  0.50010814  1
  Au  Au6  1  0.99999786  0.99996603  0.49980881  1
  Au  Au7  1  0.49999439  0.49995400  0.00017094  1
  Br  Br8  1  0.49981886  0.24087052  0.99942694  1
  Br  Br9  1  0.25895288  0.00014257  0.24044020  1
  Br  Br10  1  0.74049670  0.00014380  0.24099905  1
  Br  Br11  1  0.99982888  0.25905222  0.50055409  1
  Br  Br12  1  0.25945275  0.99974427  0.75884667  1
  Br  Br13  1  0.74109380  0.99981365  0.75940726  1
  Br  Br14  1  0.50017649  0.75904842  0.00050087  1
  Br  Br15  1  0.75893774  0.49977793  0.25954086  1
  Br  Br16  1  0.24048201  0.49978373  0.25897667  1
  Br  Br17  1  0.00016465  0.74087513  0.49947429  1
  Br  Br18  1  0.24110272  0.50011361  0.74056895  1
  Br  Br19  1  0.75946103  0.50017388  0.74113270  1
