# generated using pymatgen
data_Cs2ScInBr6
_symmetry_space_group_name_H-M   'P 1'
_cell_length_a   8.07638529
_cell_length_b   11.42241675
_cell_length_c   8.07645335
_cell_angle_alpha   89.98634765
_cell_angle_beta   90.00003548
_cell_angle_gamma   89.99971812
_symmetry_Int_Tables_number   1
_chemical_formula_structural   Cs2ScInBr6
_chemical_formula_sum   'Cs4 Sc2 In2 Br12'
_cell_volume   745.06764959
_cell_formula_units_Z   2
loop_
 _symmetry_equiv_pos_site_id
 _symmetry_equiv_pos_as_xyz
  1  'x, y, z'
loop_
 _atom_site_type_symbol
 _atom_site_label
 _atom_site_symmetry_multiplicity
 _atom_site_fract_x
 _atom_site_fract_y
 _atom_site_fract_z
 _atom_site_occupancy
  Cs  Cs0  1  0.49982141  0.24978719  0.49981542  1
  Cs  Cs1  1  0.99981740  0.25013527  0.00016973  1
  Cs  Cs2  1  0.50017385  0.74978977  0.50015487  1
  Cs  Cs3  1  0.00017892  0.75013686  0.99982368  1
  Sc  Sc4  1  0.49999761  0.99995923  0.99984505  1
  Sc  Sc5  1  0.99999660  0.49996419  0.50013321  1
  In  In6  1  0.99999703  0.99996676  0.49978136  1
  In  In7  1  0.49999562  0.49995931  0.00019716  1
  Br  Br8  1  0.49983385  0.23064159  0.99926596  1
  Br  Br9  1  0.26896049  0.00021689  0.23026184  1
  Br  Br10  1  0.73031738  0.00023096  0.23098017  1
  Br  Br11  1  0.99984356  0.26928175  0.50071392  1
  Br  Br12  1  0.26960116  0.99964568  0.76883119  1
  Br  Br13  1  0.73111045  0.99974315  0.76954826  1
  Br  Br14  1  0.50016093  0.76927775  0.00060379  1
  Br  Br15  1  0.76895216  0.49970092  0.26972305  1
  Br  Br16  1  0.23031030  0.49969097  0.26899349  1
  Br  Br17  1  0.00014901  0.73064557  0.49936982  1
  Br  Br18  1  0.23111822  0.50017997  0.73042195  1
  Br  Br19  1  0.76960942  0.50027058  0.73115491  1
