# generated using pymatgen
data_YTlH12C2(I3N)2
_symmetry_space_group_name_H-M   'P 1'
_cell_length_a   8.68168733
_cell_length_b   12.58826927
_cell_length_c   8.52575988
_cell_angle_alpha   87.29477480
_cell_angle_beta   90.00302240
_cell_angle_gamma   90.02248791
_symmetry_Int_Tables_number   1
_chemical_formula_structural   YTlH12C2(I3N)2
_chemical_formula_sum   'Y2 Tl2 H24 C4 I12 N4'
_cell_volume   930.71983486
_cell_formula_units_Z   2
loop_
 _symmetry_equiv_pos_site_id
 _symmetry_equiv_pos_as_xyz
  1  'x, y, z'
loop_
 _atom_site_type_symbol
 _atom_site_label
 _atom_site_symmetry_multiplicity
 _atom_site_fract_x
 _atom_site_fract_y
 _atom_site_fract_z
 _atom_site_occupancy
  C  C0  1  0.39674815  0.25022970  0.41555486  1
  C  C1  1  0.89801058  0.24994602  0.08567337  1
  C  C2  1  0.60324604  0.74977382  0.58445681  1
  C  C3  1  0.10199660  0.75005534  0.91433603  1
  N  N4  1  0.53439009  0.24905014  0.51934352  1
  N  N5  1  0.03499925  0.25097678  0.98102450  1
  N  N6  1  0.46560219  0.75095358  0.48067101  1
  N  N7  1  0.96501028  0.74902161  0.01898827  1
  H  H8  1  0.43546724  0.25171036  0.29315213  1
  H  H9  1  0.32930305  0.17809301  0.44203901  1
  H  H10  1  0.32855156  0.32114920  0.43694830  1
  H  H11  1  0.60176443  0.18287470  0.49842130  1
  H  H12  1  0.60121584  0.31692812  0.49596648  1
  H  H13  1  0.50513506  0.24633983  0.63835437  1
  H  H14  1  0.93759369  0.24849729  0.20782739  1
  H  H15  1  0.82948403  0.17902823  0.06487104  1
  H  H16  1  0.83062652  0.32210360  0.05965210  1
  H  H17  1  0.10176230  0.18310248  0.00400497  1
  H  H18  1  0.10263845  0.31714917  0.00141688  1
  H  H19  1  0.00499552  0.25367403  0.86214772  1
  H  H20  1  0.56452912  0.74829337  0.70686048  1
  H  H21  1  0.67144119  0.67885388  0.56306254  1
  H  H22  1  0.67069143  0.82190995  0.55797136  1
  H  H23  1  0.39822853  0.81712905  0.50159436  1
  H  H24  1  0.39877684  0.68307582  0.50404821  1
  H  H25  1  0.49485587  0.75366446  0.36165943  1
  H  H26  1  0.06241368  0.75150604  0.79218365  1
  H  H27  1  0.17052507  0.82097157  0.93514211  1
  H  H28  1  0.16938068  0.67789598  0.94035493  1
  H  H29  1  0.89824422  0.81689694  0.99600687  1
  H  H30  1  0.89737075  0.68284976  0.99859303  1
  H  H31  1  0.99501240  0.74632493  0.13786224  1
  Y  Y32  1  0.50000708  0.00000362  0.00000609  1
  Y  Y33  1  0.99999595  0.50000366  0.50000719  1
  Tl  Tl34  1  0.00000617  0.00000553  0.50000368  1
  Tl  Tl35  1  0.49999486  0.50000503  0.00000779  1
  I  I36  1  0.47400874  0.23748221  0.93497076  1
  I  I37  1  0.18901805  0.00824154  0.15468873  1
  I  I38  1  0.65566507  0.02422740  0.31291394  1
  I  I39  1  0.97343057  0.26255047  0.56556090  1
  I  I40  1  0.34434409  0.97578037  0.68710014  1
  I  I41  1  0.81099400  0.99175952  0.84532116  1
  I  I42  1  0.52600224  0.76252524  0.06504591  1
  I  I43  1  0.68908934  0.49153610  0.34509907  1
  I  I44  1  0.15587947  0.47595838  0.18722686  1
  I  I45  1  0.02656247  0.73745692  0.43445458  1
  I  I46  1  0.31090387  0.50846692  0.65491360  1
  I  I47  1  0.84411112  0.52404659  0.81278694  1
