# generated using pymatgen
data_Cs2ScAgBr6
_symmetry_space_group_name_H-M   'P 1'
_cell_length_a   7.80564633
_cell_length_b   11.02247589
_cell_length_c   7.80564619
_cell_angle_alpha   89.98987026
_cell_angle_beta   90.00014958
_cell_angle_gamma   89.99985959
_symmetry_Int_Tables_number   1
_chemical_formula_structural   Cs2ScAgBr6
_chemical_formula_sum   'Cs4 Sc2 Ag2 Br12'
_cell_volume   671.57865222
_cell_formula_units_Z   2
loop_
 _symmetry_equiv_pos_site_id
 _symmetry_equiv_pos_as_xyz
  1  'x, y, z'
loop_
 _atom_site_type_symbol
 _atom_site_label
 _atom_site_symmetry_multiplicity
 _atom_site_fract_x
 _atom_site_fract_y
 _atom_site_fract_z
 _atom_site_occupancy
  Cs  Cs0  1  0.49983106  0.24981034  0.49981301  1
  Cs  Cs1  1  0.99982653  0.25010915  0.00017241  1
  Cs  Cs2  1  0.50016400  0.74980939  0.50015408  1
  Cs  Cs3  1  0.00016881  0.75010682  0.99982400  1
  Sc  Sc4  1  0.49999869  0.99996008  0.99987525  1
  Sc  Sc5  1  0.99999600  0.49996506  0.50010327  1
  Ag  Ag6  1  0.99999753  0.99996812  0.49983774  1
  Ag  Ag7  1  0.49999471  0.49996009  0.00014326  1
  Br  Br8  1  0.49982575  0.24021797  0.99945753  1
  Br  Br9  1  0.25967111  0.00014095  0.23972297  1
  Br  Br10  1  0.73978118  0.00013426  0.24026966  1
  Br  Br11  1  0.99983576  0.25970727  0.50052320  1
  Br  Br12  1  0.26017319  0.99975266  0.75956762  1
  Br  Br13  1  0.74037173  0.99981285  0.76011752  1
  Br  Br14  1  0.50016876  0.75970407  0.00047962  1
  Br  Br15  1  0.75965941  0.49977837  0.26026145  1
  Br  Br16  1  0.23976964  0.49978998  0.25970118  1
  Br  Br17  1  0.00015847  0.74022146  0.49949528  1
  Br  Br18  1  0.24037609  0.50011134  0.73985526  1
  Br  Br19  1  0.76017694  0.50016411  0.74041451  1
