# generated using pymatgen
data_Cs2GaCoBr6
_symmetry_space_group_name_H-M   'P 1'
_cell_length_a   7.57384878
_cell_length_b   10.69571402
_cell_length_c   7.57384377
_cell_angle_alpha   89.99593356
_cell_angle_beta   90.00005401
_cell_angle_gamma   89.99995827
_symmetry_Int_Tables_number   1
_chemical_formula_structural   Cs2GaCoBr6
_chemical_formula_sum   'Cs4 Ga2 Co2 Br12'
_cell_volume   613.53981807
_cell_formula_units_Z   2
loop_
 _symmetry_equiv_pos_site_id
 _symmetry_equiv_pos_as_xyz
  1  'x, y, z'
loop_
 _atom_site_type_symbol
 _atom_site_label
 _atom_site_symmetry_multiplicity
 _atom_site_fract_x
 _atom_site_fract_y
 _atom_site_fract_z
 _atom_site_occupancy
  Cs  Cs0  1  0.49987814  0.24987724  0.49991280  1
  Cs  Cs1  1  0.99987558  0.25005943  0.00007044  1
  Cs  Cs2  1  0.50011714  0.74986277  0.50008644  1
  Cs  Cs3  1  0.00011907  0.75004410  0.99989204  1
  Co  Co4  1  0.49999742  0.99996065  0.99992683  1
  Co  Co5  1  0.99999734  0.49996281  0.50005238  1
  Ga  Ga6  1  0.99999816  0.99996582  0.49982246  1
  Ga  Ga7  1  0.49999555  0.49995971  0.00015540  1
  Br  Br8  1  0.49987870  0.23176677  0.99949261  1
  Br  Br9  1  0.26835900  0.00014063  0.23110320  1
  Br  Br10  1  0.73115202  0.00016176  0.23158717  1
  Br  Br11  1  0.99988681  0.26816325  0.50048672  1
  Br  Br12  1  0.26883388  0.99973741  0.76830299  1
  Br  Br13  1  0.73164227  0.99980065  0.76878620  1
  Br  Br14  1  0.50011620  0.76815433  0.00041520  1
  Br  Br15  1  0.76835919  0.49977817  0.26888246  1
  Br  Br16  1  0.23114488  0.49976284  0.26839311  1
  Br  Br17  1  0.00010774  0.73176146  0.49956066  1
  Br  Br18  1  0.23164243  0.50012412  0.73118495  1
  Br  Br19  1  0.76884384  0.50018042  0.73167475  1
