# generated using pymatgen
data_Cs2CuBiBr6
_symmetry_space_group_name_H-M   'P 1'
_cell_length_a   7.83760998
_cell_length_b   11.07799773
_cell_length_c   7.83763634
_cell_angle_alpha   90.00304566
_cell_angle_beta   89.99922483
_cell_angle_gamma   90.00003382
_symmetry_Int_Tables_number   1
_chemical_formula_structural   Cs2CuBiBr6
_chemical_formula_sum   'Cs4 Cu2 Bi2 Br12'
_cell_volume   680.50297505
_cell_formula_units_Z   2
loop_
 _symmetry_equiv_pos_site_id
 _symmetry_equiv_pos_as_xyz
  1  'x, y, z'
loop_
 _atom_site_type_symbol
 _atom_site_label
 _atom_site_symmetry_multiplicity
 _atom_site_fract_x
 _atom_site_fract_y
 _atom_site_fract_z
 _atom_site_occupancy
  Cs  Cs0  1  0.49983280  0.24984151  0.49985640  1
  Cs  Cs1  1  0.99982889  0.25008015  0.00012721  1
  Cs  Cs2  1  0.50016175  0.74984443  0.50015957  1
  Cs  Cs3  1  0.00016590  0.75008247  0.99981838  1
  Cu  Cu4  1  0.50000167  0.99994848  0.99980050  1
  Cu  Cu5  1  0.99999758  0.49995979  0.50017833  1
  Bi  Bi6  1  0.99999728  0.99996300  0.49987862  1
  Bi  Bi7  1  0.49999674  0.49995783  0.00009881  1
  Br  Br8  1  0.49984151  0.23946736  0.99942898  1
  Br  Br9  1  0.26002396  0.00018818  0.23934202  1
  Br  Br10  1  0.73937904  0.00016205  0.23994212  1
  Br  Br11  1  0.99985123  0.26046077  0.50055166  1
  Br  Br12  1  0.26056087  0.99973555  0.75993967  1
  Br  Br13  1  0.74001757  0.99976404  0.76053551  1
  Br  Br14  1  0.50015411  0.76045236  0.00054790  1
  Br  Br15  1  0.76002214  0.49973504  0.26064156  1
  Br  Br16  1  0.23936429  0.49976607  0.26004424  1
  Br  Br17  1  0.00014396  0.73946609  0.49942788  1
  Br  Br18  1  0.24002239  0.50016291  0.73943523  1
  Br  Br19  1  0.76058168  0.50018626  0.74003421  1
