# generated using pymatgen
data_YH12AuC2(I3N)2
_symmetry_space_group_name_H-M   'P 1'
_cell_length_a   8.27316968
_cell_length_b   12.28484092
_cell_length_c   8.21900796
_cell_angle_alpha   88.67960046
_cell_angle_beta   90.05951203
_cell_angle_gamma   90.02149929
_symmetry_Int_Tables_number   1
_chemical_formula_structural   YH12AuC2(I3N)2
_chemical_formula_sum   'Y2 H24 Au2 C4 I12 N4'
_cell_volume   835.11305843
_cell_formula_units_Z   2
loop_
 _symmetry_equiv_pos_site_id
 _symmetry_equiv_pos_as_xyz
  1  'x, y, z'
loop_
 _atom_site_type_symbol
 _atom_site_label
 _atom_site_symmetry_multiplicity
 _atom_site_fract_x
 _atom_site_fract_y
 _atom_site_fract_z
 _atom_site_occupancy
  C  C0  1  0.39616432  0.24973291  0.41374725  1
  C  C1  1  0.89737655  0.25042866  0.08726016  1
  C  C2  1  0.60383285  0.75027019  0.58626765  1
  C  C3  1  0.10263142  0.74957215  0.91275283  1
  N  N4  1  0.53976114  0.24899514  0.52161918  1
  N  N5  1  0.04019499  0.25104674  0.97865134  1
  N  N6  1  0.46023497  0.75100763  0.47839752  1
  N  N7  1  0.95981434  0.74895116  0.02136355  1
  H  H8  1  0.43697670  0.25124743  0.28711914  1
  H  H9  1  0.32446428  0.17650275  0.43916696  1
  H  H10  1  0.32532771  0.32271164  0.43733118  1
  H  H11  1  0.61065043  0.18093540  0.50011919  1
  H  H12  1  0.61013755  0.31778125  0.49815547  1
  H  H13  1  0.50871999  0.24790635  0.64489748  1
  H  H14  1  0.93910387  0.24898221  0.21365944  1
  H  H15  1  0.82618716  0.17746014  0.06420147  1
  H  H16  1  0.82566476  0.32368899  0.06216097  1
  H  H17  1  0.11057090  0.18222348  0.00182813  1
  H  H18  1  0.11137529  0.31908345  0.99975421  1
  H  H19  1  0.00835514  0.25211332  0.85552526  1
  H  H20  1  0.56302125  0.74875737  0.71289644  1
  H  H21  1  0.67466820  0.67729092  0.56268480  1
  H  H22  1  0.67553340  0.82349981  0.56084605  1
  H  H23  1  0.38934668  0.81906748  0.49989663  1
  H  H24  1  0.38985913  0.68222163  0.50186094  1
  H  H25  1  0.49127658  0.75209622  0.35511840  1
  H  H26  1  0.06090267  0.75101985  0.78635400  1
  H  H27  1  0.17381983  0.82254083  0.93581334  1
  H  H28  1  0.17434454  0.67631194  0.93784910  1
  H  H29  1  0.88943573  0.81777339  0.99818875  1
  H  H30  1  0.88863658  0.68091324  0.00026052  1
  H  H31  1  0.99165533  0.74788447  0.14448925  1
  Y  Y32  1  0.49999598  0.00000670  0.00001002  1
  Y  Y33  1  0.99998451  0.50000165  0.49999228  1
  Au  Au34  1  0.99999882  0.99999544  0.50003474  1
  Au  Au35  1  0.49999162  0.50004253  0.99994868  1
  I  I36  1  0.47671777  0.24339554  0.94558431  1
  I  I37  1  0.18269994  0.00871035  0.18381632  1
  I  I38  1  0.68666796  0.01471366  0.31948726  1
  I  I39  1  0.97605555  0.25665113  0.55498696  1
  I  I40  1  0.31334166  0.98528992  0.68052201  1
  I  I41  1  0.81730180  0.99128856  0.81620610  1
  I  I42  1  0.52328921  0.75660867  0.05443610  1
  I  I43  1  0.68232273  0.49116076  0.31576673  1
  I  I44  1  0.18639583  0.48539993  0.18097079  1
  I  I45  1  0.02393976  0.74335418  0.44502712  1
  I  I46  1  0.31766406  0.50883916  0.68422670  1
  I  I47  1  0.81361227  0.51460196  0.81904387  1
