# generated using pymatgen
data_Cs2ZnSnBr6
_symmetry_space_group_name_H-M   'P 1'
_cell_length_a   7.89272142
_cell_length_b   11.15691602
_cell_length_c   7.89273964
_cell_angle_alpha   89.99674561
_cell_angle_beta   89.99999974
_cell_angle_gamma   89.99995786
_symmetry_Int_Tables_number   1
_chemical_formula_structural   Cs2ZnSnBr6
_chemical_formula_sum   'Cs4 Zn2 Sn2 Br12'
_cell_volume   695.02225989
_cell_formula_units_Z   2
loop_
 _symmetry_equiv_pos_site_id
 _symmetry_equiv_pos_as_xyz
  1  'x, y, z'
loop_
 _atom_site_type_symbol
 _atom_site_label
 _atom_site_symmetry_multiplicity
 _atom_site_fract_x
 _atom_site_fract_y
 _atom_site_fract_z
 _atom_site_occupancy
  Cs  Cs0  1  0.49979098  0.24974385  0.49982077  1
  Cs  Cs1  1  0.99978657  0.25017586  0.00016466  1
  Cs  Cs2  1  0.50020371  0.74974321  0.50018003  1
  Cs  Cs3  1  0.00020866  0.75017517  0.99979715  1
  Zn  Zn4  1  0.49999908  0.99996210  0.99978131  1
  Zn  Zn5  1  0.99999602  0.49997127  0.50019792  1
  Sn  Sn6  1  0.99999838  0.99996606  0.49980143  1
  Sn  Sn7  1  0.49999553  0.49995661  0.00017770  1
  Br  Br8  1  0.49977865  0.23799879  0.99919845  1
  Br  Br9  1  0.26159947  0.00027974  0.23758591  1
  Br  Br10  1  0.73759974  0.00023666  0.23838165  1
  Br  Br11  1  0.99979304  0.26192310  0.50078087  1
  Br  Br12  1  0.26228557  0.99962397  0.76148267  1
  Br  Br13  1  0.73850171  0.99970178  0.76227420  1
  Br  Br14  1  0.50021509  0.76191753  0.00074544  1
  Br  Br15  1  0.76159255  0.49963924  0.26239807  1
  Br  Br16  1  0.23759448  0.49969025  0.26159108  1
  Br  Br17  1  0.00020113  0.73800423  0.49922557  1
  Br  Br18  1  0.23850767  0.50022420  0.73769619  1
  Br  Br19  1  0.76229733  0.50029068  0.73850775  1
