# generated using pymatgen
data_Cs2SrZnBr6
_symmetry_space_group_name_H-M   'P 1'
_cell_length_a   7.96481562
_cell_length_b   11.25502746
_cell_length_c   7.96482151
_cell_angle_alpha   89.99680218
_cell_angle_beta   90.00001975
_cell_angle_gamma   89.99994887
_symmetry_Int_Tables_number   1
_chemical_formula_structural   Cs2SrZnBr6
_chemical_formula_sum   'Cs4 Sr2 Zn2 Br12'
_cell_volume   714.00019828
_cell_formula_units_Z   2
loop_
 _symmetry_equiv_pos_site_id
 _symmetry_equiv_pos_as_xyz
  1  'x, y, z'
loop_
 _atom_site_type_symbol
 _atom_site_label
 _atom_site_symmetry_multiplicity
 _atom_site_fract_x
 _atom_site_fract_y
 _atom_site_fract_z
 _atom_site_occupancy
  Cs  Cs0  1  0.49980474  0.24976081  0.49984092  1
  Cs  Cs1  1  0.99980071  0.25015982  0.00014393  1
  Cs  Cs2  1  0.50019014  0.74976023  0.50016560  1
  Cs  Cs3  1  0.00019442  0.75015914  0.99981142  1
  Zn  Zn4  1  0.49999895  0.99996094  0.99981738  1
  Zn  Zn5  1  0.99999643  0.49996947  0.50016138  1
  Sr  Sr6  1  0.99999810  0.99996531  0.49982798  1
  Sr  Sr7  1  0.49999597  0.49995712  0.00015061  1
  Br  Br8  1  0.49979153  0.23455653  0.99918096  1
  Br  Br9  1  0.26499898  0.00028267  0.23415638  1
  Br  Br10  1  0.73417712  0.00025638  0.23497537  1
  Br  Br11  1  0.99980567  0.26536474  0.50079831  1
  Br  Br12  1  0.26571473  0.99960772  0.76488153  1
  Br  Br13  1  0.73509536  0.99969525  0.76569656  1
  Br  Br14  1  0.50020259  0.76535901  0.00073683  1
  Br  Br15  1  0.76499228  0.49963648  0.26582814  1
  Br  Br16  1  0.23417117  0.49967128  0.26499798  1
  Br  Br17  1  0.00018817  0.73456198  0.49923521  1
  Br  Br18  1  0.23510242  0.50023180  0.73427379  1
  Br  Br19  1  0.76572589  0.50030764  0.73510850  1
