# generated using pymatgen
data_Cs2ZnGeBr6
_symmetry_space_group_name_H-M   'P 1'
_cell_length_a   7.72188021
_cell_length_b   10.92388648
_cell_length_c   7.72190392
_cell_angle_alpha   89.99849706
_cell_angle_beta   89.99999459
_cell_angle_gamma   89.99998188
_symmetry_Int_Tables_number   1
_chemical_formula_structural   Cs2ZnGeBr6
_chemical_formula_sum   'Cs4 Zn2 Ge2 Br12'
_cell_volume   651.36531925
_cell_formula_units_Z   2
loop_
 _symmetry_equiv_pos_site_id
 _symmetry_equiv_pos_as_xyz
  1  'x, y, z'
loop_
 _atom_site_type_symbol
 _atom_site_label
 _atom_site_symmetry_multiplicity
 _atom_site_fract_x
 _atom_site_fract_y
 _atom_site_fract_z
 _atom_site_occupancy
  Cs  Cs0  1  0.49979849  0.24975828  0.49982506  1
  Cs  Cs1  1  0.99979422  0.25016237  0.00016030  1
  Cs  Cs2  1  0.50019622  0.74975767  0.50017251  1
  Cs  Cs3  1  0.00020100  0.75016169  0.99980492  1
  Zn  Zn4  1  0.49999940  0.99996346  0.99975591  1
  Zn  Zn5  1  0.99999572  0.49997276  0.50022283  1
  Ge  Ge6  1  0.99999830  0.99996664  0.49978328  1
  Ge  Ge7  1  0.49999524  0.49995649  0.00019601  1
  Br  Br8  1  0.49978544  0.24381792  0.99923590  1
  Br  Br9  1  0.25576646  0.00027230  0.24343699  1
  Br  Br10  1  0.74345142  0.00022634  0.24421428  1
  Br  Br11  1  0.99979933  0.25610342  0.50074393  1
  Br  Br12  1  0.25646128  0.99963616  0.75567578  1
  Br  Br13  1  0.74430694  0.99970623  0.75644976  1
  Br  Br14  1  0.50020854  0.75609950  0.00072998  1
  Br  Br15  1  0.75575980  0.49964579  0.25654626  1
  Br  Br16  1  0.24344636  0.49969951  0.25575887  1
  Br  Br17  1  0.00019482  0.74382155  0.49924157  1
  Br  Br18  1  0.24431332  0.50021854  0.74352159  1
  Br  Br19  1  0.75647308  0.50027770  0.74431306  1
