# generated using pymatgen
data_Cs2TlGaBr6
_symmetry_space_group_name_H-M   'P 1'
_cell_length_a   8.02022472
_cell_length_b   11.33814772
_cell_length_c   8.02025443
_cell_angle_alpha   89.99450931
_cell_angle_beta   90.00001699
_cell_angle_gamma   89.99979566
_symmetry_Int_Tables_number   1
_chemical_formula_structural   Cs2TlGaBr6
_chemical_formula_sum   'Cs4 Tl2 Ga2 Br12'
_cell_volume   729.31776368
_cell_formula_units_Z   2
loop_
 _symmetry_equiv_pos_site_id
 _symmetry_equiv_pos_as_xyz
  1  'x, y, z'
loop_
 _atom_site_type_symbol
 _atom_site_label
 _atom_site_symmetry_multiplicity
 _atom_site_fract_x
 _atom_site_fract_y
 _atom_site_fract_z
 _atom_site_occupancy
  Cs  Cs0  1  0.49991314  0.24989848  0.49991586  1
  Cs  Cs1  1  0.99991110  0.25003159  0.00006901  1
  Cs  Cs2  1  0.50008151  0.74989896  0.50004358  1
  Cs  Cs3  1  0.00008474  0.75003176  0.99993817  1
  Ga  Ga4  1  0.49999763  0.99995942  0.99986441  1
  Ga  Ga5  1  0.99999736  0.49996299  0.50011247  1
  Tl  Tl6  1  0.99999797  0.99996487  0.49983618  1
  Tl  Tl7  1  0.49999737  0.49996009  0.00013968  1
  Br  Br8  1  0.49989839  0.22614846  0.99936775  1
  Br  Br9  1  0.27354141  0.00017566  0.22582703  1
  Br  Br10  1  0.72589020  0.00022225  0.22639017  1
  Br  Br11  1  0.99990230  0.27377419  0.50061219  1
  Br  Br12  1  0.27405264  0.99967498  0.77343013  1
  Br  Br13  1  0.72650107  0.99975875  0.77398956  1
  Br  Br14  1  0.50009743  0.77377140  0.00043896  1
  Br  Br15  1  0.77353704  0.49974146  0.27415428  1
  Br  Br16  1  0.22588770  0.49969502  0.27358523  1
  Br  Br17  1  0.00009143  0.72615131  0.49953722  1
  Br  Br18  1  0.22650566  0.50015994  0.72598380  1
  Br  Br19  1  0.77405929  0.50024274  0.72655313  1
