# generated using pymatgen
data_Cs2InGaBr6
_symmetry_space_group_name_H-M   'P 1'
_cell_length_a   7.95543352
_cell_length_b   11.24704209
_cell_length_c   7.95543728
_cell_angle_alpha   90.00602175
_cell_angle_beta   90.00006107
_cell_angle_gamma   90.00019040
_symmetry_Int_Tables_number   1
_chemical_formula_structural   Cs2InGaBr6
_chemical_formula_sum   'Cs4 In2 Ga2 Br12'
_cell_volume   711.81350716
_cell_formula_units_Z   2
loop_
 _symmetry_equiv_pos_site_id
 _symmetry_equiv_pos_as_xyz
  1  'x, y, z'
loop_
 _atom_site_type_symbol
 _atom_site_label
 _atom_site_symmetry_multiplicity
 _atom_site_fract_x
 _atom_site_fract_y
 _atom_site_fract_z
 _atom_site_occupancy
  Cs  Cs0  1  0.49988300  0.24987705  0.49989356  1
  Cs  Cs1  1  0.99987996  0.25004703  0.00009081  1
  Cs  Cs2  1  0.50011139  0.74987723  0.50008659  1
  Cs  Cs3  1  0.00011548  0.75004830  0.99989256  1
  Ga  Ga4  1  0.49999887  0.99996251  0.99974556  1
  Ga  Ga5  1  0.99999640  0.49996726  0.50023031  1
  In  In6  1  0.99999663  0.99996345  0.49984924  1
  In  In7  1  0.49999770  0.49996076  0.00012828  1
  Br  Br8  1  0.49988425  0.25806649  0.99949195  1
  Br  Br9  1  0.24165036  0.00020714  0.25775137  1
  Br  Br10  1  0.75778790  0.00015313  0.25830445  1
  Br  Br11  1  0.99988827  0.24185493  0.50048899  1
  Br  Br12  1  0.24213033  0.99974544  0.74154461  1
  Br  Br13  1  0.75841101  0.99973434  0.74209317  1
  Br  Br14  1  0.50011117  0.74185327  0.00054529  1
  Br  Br15  1  0.74164889  0.49971323  0.24223082  1
  Br  Br16  1  0.25778942  0.49976687  0.24167181  1
  Br  Br17  1  0.00010487  0.75806836  0.49942866  1
  Br  Br18  1  0.25841852  0.50018472  0.75787871  1
  Br  Br19  1  0.74214094  0.50017281  0.75844207  1
