# generated using pymatgen
data_YInH12C2(I3N)2
_symmetry_space_group_name_H-M   'P 1'
_cell_length_a   8.67706310
_cell_length_b   12.53017737
_cell_length_c   8.50166186
_cell_angle_alpha   88.44140302
_cell_angle_beta   89.98972359
_cell_angle_gamma   90.00953984
_symmetry_Int_Tables_number   1
_chemical_formula_structural   YInH12C2(I3N)2
_chemical_formula_sum   'Y2 In2 H24 C4 I12 N4'
_cell_volume   924.00236591
_cell_formula_units_Z   2
loop_
 _symmetry_equiv_pos_site_id
 _symmetry_equiv_pos_as_xyz
  1  'x, y, z'
loop_
 _atom_site_type_symbol
 _atom_site_label
 _atom_site_symmetry_multiplicity
 _atom_site_fract_x
 _atom_site_fract_y
 _atom_site_fract_z
 _atom_site_occupancy
  C  C0  1  0.42439266  0.25108525  0.42515874  1
  C  C1  1  0.92788966  0.24924418  0.07461589  1
  C  C2  1  0.57180158  0.74892907  0.57228684  1
  C  C3  1  0.07486354  0.75064463  0.92718480  1
  N  N4  1  0.55773754  0.24996951  0.53513586  1
  N  N5  1  0.06108569  0.25014660  0.96440180  1
  N  N6  1  0.43895553  0.75003341  0.46166058  1
  N  N7  1  0.94194538  0.74971285  0.03772150  1
  H  H8  1  0.46883911  0.25187847  0.30453383  1
  H  H9  1  0.35560525  0.17899327  0.44748342  1
  H  H10  1  0.35588327  0.32287506  0.44470712  1
  H  H11  1  0.62573041  0.18323696  0.51715460  1
  H  H12  1  0.62601483  0.31737436  0.51476805  1
  H  H13  1  0.52407803  0.24853450  0.65327479  1
  H  H14  1  0.97242486  0.24857323  0.19516050  1
  H  H15  1  0.85915502  0.17750658  0.05528776  1
  H  H16  1  0.85925777  0.32139055  0.05217493  1
  H  H17  1  0.12918120  0.18268024  0.98469348  1
  H  H18  1  0.12930310  0.31679790  0.98200036  1
  H  H19  1  0.02707258  0.25152302  0.84633417  1
  H  H20  1  0.52685208  0.74817556  0.69268727  1
  H  H21  1  0.64042007  0.67716938  0.55299507  1
  H  H22  1  0.64065138  0.82104857  0.55017336  1
  H  H23  1  0.37079957  0.81671409  0.47911142  1
  H  H24  1  0.37063062  0.68265185  0.48162846  1
  H  H25  1  0.47332393  0.75146316  0.34368127  1
  H  H26  1  0.02994383  0.75138112  0.80677350  1
  H  H27  1  0.14361208  0.82238778  0.94635187  1
  H  H28  1  0.14353888  0.67850592  0.94935774  1
  H  H29  1  0.87372897  0.81712989  0.01754622  1
  H  H30  1  0.87370969  0.68303851  0.02020248  1
  H  H31  1  0.97604768  0.74833974  0.15573320  1
  Y  Y32  1  0.50071963  0.00003641  0.99984662  1
  Y  Y33  1  0.00007175  0.50005763  0.50105359  1
  In  In34  1  1.00003263  0.00033550  0.50043667  1
  In  In35  1  0.50075172  0.49985658  0.00055955  1
  I  I36  1  0.49230976  0.23953777  0.94931789  1
  I  I37  1  0.19380959  0.01065602  0.16408914  1
  I  I38  1  0.66512428  0.01812158  0.31060379  1
  I  I39  1  0.98942821  0.26051836  0.55210931  1
  I  I40  1  0.33517276  0.98230915  0.68979859  1
  I  I41  1  0.80789974  0.98851949  0.83719842  1
  I  I42  1  0.51087386  0.76038368  0.04909243  1
  I  I43  1  0.69344559  0.48883228  0.33679511  1
  I  I44  1  0.16554585  0.48271679  0.19064141  1
  I  I45  1  0.00804262  0.73972704  0.45114441  1
  I  I46  1  0.30695498  0.51082936  0.66431446  1
  I  I47  1  0.83536493  0.51850546  0.81131430  1
