# generated using pymatgen
data_Cs2GaRhBr6
_symmetry_space_group_name_H-M   'P 1'
_cell_length_a   7.65113432
_cell_length_b   10.80712784
_cell_length_c   7.65117253
_cell_angle_alpha   90.00576481
_cell_angle_beta   89.99986145
_cell_angle_gamma   90.00006003
_symmetry_Int_Tables_number   1
_chemical_formula_structural   Cs2GaRhBr6
_chemical_formula_sum   'Cs4 Ga2 Rh2 Br12'
_cell_volume   632.65086824
_cell_formula_units_Z   2
loop_
 _symmetry_equiv_pos_site_id
 _symmetry_equiv_pos_as_xyz
  1  'x, y, z'
loop_
 _atom_site_type_symbol
 _atom_site_label
 _atom_site_symmetry_multiplicity
 _atom_site_fract_x
 _atom_site_fract_y
 _atom_site_fract_z
 _atom_site_occupancy
  Cs  Cs0  1  0.49987255  0.24987618  0.49988890  1
  Cs  Cs1  1  0.99987045  0.25004897  0.00009457  1
  Cs  Cs2  1  0.50012214  0.74987685  0.50007668  1
  Cs  Cs3  1  0.00012510  0.75005123  0.99990161  1
  Ga  Ga4  1  0.49999879  0.99995827  0.99982880  1
  Ga  Ga5  1  0.99999603  0.49996406  0.50014877  1
  Rh  Rh6  1  0.99999729  0.99996226  0.49992422  1
  Rh  Rh7  1  0.49999708  0.49995984  0.00005460  1
  Br  Br8  1  0.49985195  0.26409773  0.99949717  1
  Br  Br9  1  0.23528993  0.00019795  0.26413546  1
  Br  Br10  1  0.76418164  0.00013532  0.26466040  1
  Br  Br11  1  0.99986208  0.23582198  0.50048328  1
  Br  Br12  1  0.23579108  0.99976511  0.73522251  1
  Br  Br13  1  0.76472567  0.99974621  0.73574697  1
  Br  Br14  1  0.50014150  0.73582145  0.00056423  1
  Br  Br15  1  0.73528812  0.49972104  0.23584899  1
  Br  Br16  1  0.26417502  0.49978982  0.23531970  1
  Br  Br17  1  0.00013214  0.76410212  0.49940932  1
  Br  Br18  1  0.26472685  0.50017707  0.76422615  1
  Br  Br19  1  0.73579997  0.50015087  0.76475647  1
