# generated using pymatgen
data_Cs2GePbBr6
_symmetry_space_group_name_H-M   'P 1'
_cell_length_a   8.07464547
_cell_length_b   11.41553213
_cell_length_c   8.07469389
_cell_angle_alpha   89.99782271
_cell_angle_beta   90.00000133
_cell_angle_gamma   89.99996543
_symmetry_Int_Tables_number   1
_chemical_formula_structural   Cs2GePbBr6
_chemical_formula_sum   'Cs4 Ge2 Pb2 Br12'
_cell_volume   744.29601030
_cell_formula_units_Z   2
loop_
 _symmetry_equiv_pos_site_id
 _symmetry_equiv_pos_as_xyz
  1  'x, y, z'
loop_
 _atom_site_type_symbol
 _atom_site_label
 _atom_site_symmetry_multiplicity
 _atom_site_fract_x
 _atom_site_fract_y
 _atom_site_fract_z
 _atom_site_occupancy
  Cs  Cs0  1  0.49979518  0.24972526  0.49981839  1
  Cs  Cs1  1  0.99979099  0.25019624  0.00016793  1
  Cs  Cs2  1  0.50019975  0.74972477  0.50017391  1
  Cs  Cs3  1  0.00020476  0.75019513  0.99980436  1
  Ge  Ge4  1  0.49999878  0.99995773  0.99980677  1
  Ge  Ge5  1  0.99999637  0.49996664  0.50017144  1
  Pb  Pb6  1  0.99999833  0.99996716  0.49979394  1
  Pb  Pb7  1  0.49999539  0.49995753  0.00018415  1
  Br  Br8  1  0.49975464  0.24147888  0.99913650  1
  Br  Br9  1  0.25815323  0.00031929  0.24100500  1
  Br  Br10  1  0.74100308  0.00026060  0.24184591  1
  Br  Br11  1  0.99977013  0.25844537  0.50084271  1
  Br  Br12  1  0.25881354  0.99958888  0.75798497  1
  Br  Br13  1  0.74201695  0.99967330  0.75881910  1
  Br  Br14  1  0.50023920  0.75843694  0.00081186  1
  Br  Br15  1  0.75814577  0.49959947  0.25897745  1
  Br  Br16  1  0.24099728  0.49966680  0.25812862  1
  Br  Br17  1  0.00022393  0.74148716  0.49915785  1
  Br  Br18  1  0.24202233  0.50025270  0.74115132  1
  Br  Br19  1  0.75882574  0.50032449  0.74200663  1
