# generated using pymatgen
data_Cs2CdGeBr6
_symmetry_space_group_name_H-M   'P 1'
_cell_length_a   7.88031703
_cell_length_b   11.13922411
_cell_length_c   7.88034176
_cell_angle_alpha   89.99943081
_cell_angle_beta   90.00000510
_cell_angle_gamma   89.99998717
_symmetry_Int_Tables_number   1
_chemical_formula_structural   Cs2CdGeBr6
_chemical_formula_sum   'Cs4 Cd2 Ge2 Br12'
_cell_volume   691.74126614
_cell_formula_units_Z   2
loop_
 _symmetry_equiv_pos_site_id
 _symmetry_equiv_pos_as_xyz
  1  'x, y, z'
loop_
 _atom_site_type_symbol
 _atom_site_label
 _atom_site_symmetry_multiplicity
 _atom_site_fract_x
 _atom_site_fract_y
 _atom_site_fract_z
 _atom_site_occupancy
  Cs  Cs0  1  0.49978101  0.24972793  0.49979567  1
  Cs  Cs1  1  0.99977656  0.25019164  0.00019001  1
  Cs  Cs2  1  0.50021346  0.74972726  0.50018148  1
  Cs  Cs3  1  0.00021893  0.75019079  0.99979562  1
  Ge  Ge4  1  0.49999928  0.99995601  0.99978148  1
  Ge  Ge5  1  0.99999604  0.49996612  0.50019690  1
  Cd  Cd6  1  0.99999831  0.99996789  0.49976819  1
  Cd  Cd7  1  0.49999496  0.49995743  0.00020959  1
  Br  Br8  1  0.49976318  0.24942370  0.99918889  1
  Br  Br9  1  0.25024991  0.00029241  0.24891497  1
  Br  Br10  1  0.74891767  0.00023125  0.24974308  1
  Br  Br11  1  0.99977819  0.25050042  0.50079135  1
  Br  Br12  1  0.25094058  0.99962604  0.75011738  1
  Br  Br13  1  0.74987827  0.99969607  0.75094079  1
  Br  Br14  1  0.50023061  0.75049409  0.00078257  1
  Br  Br15  1  0.75024306  0.49962822  0.25106869  1
  Br  Br16  1  0.24891182  0.49969703  0.25023045  1
  Br  Br17  1  0.00021613  0.74942976  0.49918832  1
  Br  Br18  1  0.24988456  0.50023086  0.74902957  1
  Br  Br19  1  0.75095284  0.50028940  0.74987382  1
