# generated using pymatgen
data_YAgH12C2(I3N)2
_symmetry_space_group_name_H-M   'P 1'
_cell_length_a   8.36253591
_cell_length_b   12.16430584
_cell_length_c   8.26218483
_cell_angle_alpha   88.84485881
_cell_angle_beta   90.01947576
_cell_angle_gamma   90.01923332
_symmetry_Int_Tables_number   1
_chemical_formula_structural   YAgH12C2(I3N)2
_chemical_formula_sum   'Y2 Ag2 H24 C4 I12 N4'
_cell_volume   840.29526184
_cell_formula_units_Z   2
loop_
 _symmetry_equiv_pos_site_id
 _symmetry_equiv_pos_as_xyz
  1  'x, y, z'
loop_
 _atom_site_type_symbol
 _atom_site_label
 _atom_site_symmetry_multiplicity
 _atom_site_fract_x
 _atom_site_fract_y
 _atom_site_fract_z
 _atom_site_occupancy
  C  C0  1  0.39887012  0.24949827  0.41533291  1
  C  C1  1  0.89988701  0.25062455  0.08554897  1
  C  C2  1  0.60112704  0.75050582  0.58468036  1
  C  C3  1  0.10011982  0.74937735  0.91446271  1
  N  N4  1  0.54125640  0.24893453  0.52223610  1
  N  N5  1  0.04168790  0.25108701  0.97796525  1
  N  N6  1  0.45873919  0.75106819  0.47777918  1
  N  N7  1  0.95831997  0.74891146  0.02204788  1
  H  H8  1  0.43892460  0.25085457  0.28922360  1
  H  H9  1  0.32833620  0.17540921  0.44070082  1
  H  H10  1  0.32860624  0.32308416  0.43926937  1
  H  H11  1  0.61132155  0.18019539  0.49999324  1
  H  H12  1  0.61074086  0.31843905  0.49851210  1
  H  H13  1  0.51088010  0.24788479  0.64481818  1
  H  H14  1  0.94072980  0.24932159  0.21146850  1
  H  H15  1  0.82934782  0.17705302  0.06213613  1
  H  H16  1  0.82937993  0.32473747  0.06053545  1
  H  H17  1  0.11111738  0.18155529  0.00135357  1
  H  H18  1  0.11196999  0.31979096  0.99977673  1
  H  H19  1  0.01060314  0.25211535  0.85547578  1
  H  H20  1  0.56107334  0.74915025  0.71079058  1
  H  H21  1  0.67138963  0.67691895  0.56074446  1
  H  H22  1  0.67166108  0.82459382  0.55931137  1
  H  H23  1  0.38867460  0.81980885  0.50002189  1
  H  H24  1  0.38925567  0.68156515  0.50150301  1
  H  H25  1  0.48911551  0.75211889  0.35519627  1
  H  H26  1  0.05927620  0.75068169  0.78854371  1
  H  H27  1  0.17065793  0.82294895  0.93787782  1
  H  H28  1  0.17062844  0.67526446  0.93947332  1
  H  H29  1  0.88888782  0.81844254  0.99866111  1
  H  H30  1  0.88804014  0.68020668  0.00023537  1
  H  H31  1  0.98940516  0.74788296  0.14453684  1
  Y  Y32  1  0.50000045  0.00000513  0.00000810  1
  Y  Y33  1  0.99999389  0.50000153  0.49999987  1
  Ag  Ag34  1  0.00000017  1.00000024  0.50001302  1
  Ag  Ag35  1  0.49999505  0.50002250  0.99998515  1
  I  I36  1  0.47905447  0.24671021  0.94686361  1
  I  I37  1  0.18683618  0.00908907  0.18267428  1
  I  I38  1  0.68473745  0.01471925  0.31504457  1
  I  I39  1  0.97841322  0.25332150  0.55361323  1
  I  I40  1  0.31526525  0.98528443  0.68497138  1
  I  I41  1  0.81316700  0.99091135  0.81734497  1
  I  I42  1  0.52095142  0.75329597  0.05315394  1
  I  I43  1  0.68676287  0.49083925  0.31713684  1
  I  I44  1  0.18475032  0.48533615  0.18514075  1
  I  I45  1  0.02158255  0.74668209  0.44639998  1
  I  I46  1  0.31323112  0.50916180  0.68286526  1
  I  I47  1  0.81525173  0.51466659  0.81486907  1
