# generated using pymatgen
data_Cs2SrOsBr6
_symmetry_space_group_name_H-M   'P 1'
_cell_length_a   7.81206910
_cell_length_b   11.04485364
_cell_length_c   7.81209093
_cell_angle_alpha   90.00299822
_cell_angle_beta   90.00002221
_cell_angle_gamma   90.00002874
_symmetry_Int_Tables_number   1
_chemical_formula_structural   Cs2SrOsBr6
_chemical_formula_sum   'Cs4 Sr2 Os2 Br12'
_cell_volume   674.05188939
_cell_formula_units_Z   2
loop_
 _symmetry_equiv_pos_site_id
 _symmetry_equiv_pos_as_xyz
  1  'x, y, z'
loop_
 _atom_site_type_symbol
 _atom_site_label
 _atom_site_symmetry_multiplicity
 _atom_site_fract_x
 _atom_site_fract_y
 _atom_site_fract_z
 _atom_site_occupancy
  Cs  Cs0  1  0.49980678  0.24977520  0.49981076  1
  Cs  Cs1  1  0.99980365  0.25014720  0.00017418  1
  Cs  Cs2  1  0.50018726  0.74977414  0.50012821  1
  Cs  Cs3  1  0.00019220  0.75014714  0.99984919  1
  Sr  Sr4  1  0.49999861  0.99995795  0.99982983  1
  Sr  Sr5  1  0.99999621  0.49996524  0.50014808  1
  Os  Os6  1  0.99999749  0.99996345  0.49988847  1
  Os  Os7  1  0.49999675  0.49995891  0.00008965  1
  Br  Br8  1  0.49978963  0.26919729  0.99928333  1
  Br  Br9  1  0.23045361  0.00030050  0.26871897  1
  Br  Br10  1  0.76875641  0.00023022  0.26950375  1
  Br  Br11  1  0.99980410  0.23072528  0.50069789  1
  Br  Br12  1  0.23114602  0.99964801  0.73032725  1
  Br  Br13  1  0.76963190  0.99967054  0.73110882  1
  Br  Br14  1  0.50020367  0.73071975  0.00078793  1
  Br  Br15  1  0.73044588  0.49961928  0.23126629  1
  Br  Br16  1  0.26874997  0.49969830  0.23046825  1
  Br  Br17  1  0.00019072  0.76920276  0.49918374  1
  Br  Br18  1  0.26963812  0.50025596  0.76886108  1
  Br  Br19  1  0.73115638  0.50026721  0.76966313  1
