# generated using pymatgen
data_Cs2SrCdBr6
_symmetry_space_group_name_H-M   'P 1'
_cell_length_a   8.11524577
_cell_length_b   11.47000597
_cell_length_c   8.11522722
_cell_angle_alpha   90.00052091
_cell_angle_beta   89.99999068
_cell_angle_gamma   90.00000289
_symmetry_Int_Tables_number   1
_chemical_formula_structural   Cs2SrCdBr6
_chemical_formula_sum   'Cs4 Sr2 Cd2 Br12'
_cell_volume   755.38091002
_cell_formula_units_Z   2
loop_
 _symmetry_equiv_pos_site_id
 _symmetry_equiv_pos_as_xyz
  1  'x, y, z'
loop_
 _atom_site_type_symbol
 _atom_site_label
 _atom_site_symmetry_multiplicity
 _atom_site_fract_x
 _atom_site_fract_y
 _atom_site_fract_z
 _atom_site_occupancy
  Cs  Cs0  1  0.49979832  0.24974683  0.49981069  1
  Cs  Cs1  1  0.99979458  0.25017534  0.00017413  1
  Cs  Cs2  1  0.50019601  0.74974619  0.50015061  1
  Cs  Cs3  1  0.00020102  0.75017464  0.99982644  1
  Sr  Sr4  1  0.49999883  0.99995661  0.99981509  1
  Sr  Sr5  1  0.99999618  0.49996577  0.50016300  1
  Cd  Cd6  1  0.99999824  0.99996582  0.49981811  1
  Cd  Cd7  1  0.49999580  0.49995543  0.00016150  1
  Br  Br8  1  0.49977508  0.25865774  0.99920122  1
  Br  Br9  1  0.24096123  0.00032826  0.25816739  1
  Br  Br10  1  0.75817518  0.00025413  0.25902686  1
  Br  Br11  1  0.99979036  0.24126509  0.50077897  1
  Br  Br12  1  0.24167999  0.99960333  0.74082009  1
  Br  Br13  1  0.75917045  0.99966222  0.74167460  1
  Br  Br14  1  0.50021831  0.74125799  0.00080852  1
  Br  Br15  1  0.74095395  0.49959208  0.24181630  1
  Br  Br16  1  0.25816875  0.49967514  0.24094635  1
  Br  Br17  1  0.00020412  0.75866473  0.49916230  1
  Br  Br18  1  0.25917715  0.50026535  0.75829535  1
  Br  Br19  1  0.74169181  0.50031162  0.75917129  1
