# generated using pymatgen
data_Cs2SrRuBr6
_symmetry_space_group_name_H-M   'P 1'
_cell_length_a   7.82167872
_cell_length_b   11.05910431
_cell_length_c   7.82169843
_cell_angle_alpha   90.00361914
_cell_angle_beta   90.00003540
_cell_angle_gamma   90.00004214
_symmetry_Int_Tables_number   1
_chemical_formula_structural   Cs2SrRuBr6
_chemical_formula_sum   'Cs4 Sr2 Ru2 Br12'
_cell_volume   676.58286420
_cell_formula_units_Z   2
loop_
 _symmetry_equiv_pos_site_id
 _symmetry_equiv_pos_as_xyz
  1  'x, y, z'
loop_
 _atom_site_type_symbol
 _atom_site_label
 _atom_site_symmetry_multiplicity
 _atom_site_fract_x
 _atom_site_fract_y
 _atom_site_fract_z
 _atom_site_occupancy
  Cs  Cs0  1  0.49981309  0.24978229  0.49981770  1
  Cs  Cs1  1  0.99980986  0.25014088  0.00016712  1
  Cs  Cs2  1  0.50018105  0.74978134  0.50012308  1
  Cs  Cs3  1  0.00018594  0.75014009  0.99985430  1
  Sr  Sr4  1  0.49999851  0.99995791  0.99983396  1
  Sr  Sr5  1  0.99999620  0.49996507  0.50014395  1
  Ru  Ru6  1  0.99999745  0.99996354  0.49988948  1
  Ru  Ru7  1  0.49999673  0.49995906  0.00008861  1
  Br  Br8  1  0.49979419  0.26874857  0.99928283  1
  Br  Br9  1  0.23090086  0.00030339  0.26827366  1
  Br  Br10  1  0.76831091  0.00023039  0.26905664  1
  Br  Br11  1  0.99980889  0.23117344  0.50069822  1
  Br  Br12  1  0.23159210  0.99964739  0.73077512  1
  Br  Br13  1  0.76918417  0.99966797  0.73155500  1
  Br  Br14  1  0.50019898  0.73116783  0.00078427  1
  Br  Br15  1  0.73089314  0.49961640  0.23171181  1
  Br  Br16  1  0.26830459  0.49969823  0.23091568  1
  Br  Br17  1  0.00018593  0.76875403  0.49918735  1
  Br  Br18  1  0.26919040  0.50025863  0.76841484  1
  Br  Br19  1  0.73160238  0.50026785  0.76921521  1
