# generated using pymatgen
data_Cs2YReBr6
_symmetry_space_group_name_H-M   'P 1'
_cell_length_a   7.62871257
_cell_length_b   10.78489704
_cell_length_c   7.62875194
_cell_angle_alpha   89.99441986
_cell_angle_beta   90.00001900
_cell_angle_gamma   89.99989970
_symmetry_Int_Tables_number   1
_chemical_formula_structural   Cs2YReBr6
_chemical_formula_sum   'Cs4 Y2 Re2 Br12'
_cell_volume   627.65464445
_cell_formula_units_Z   2
loop_
 _symmetry_equiv_pos_site_id
 _symmetry_equiv_pos_as_xyz
  1  'x, y, z'
loop_
 _atom_site_type_symbol
 _atom_site_label
 _atom_site_symmetry_multiplicity
 _atom_site_fract_x
 _atom_site_fract_y
 _atom_site_fract_z
 _atom_site_occupancy
  Cs  Cs0  1  0.49980298  0.24977161  0.49979677  1
  Cs  Cs1  1  0.99979950  0.25015092  0.00018849  1
  Cs  Cs2  1  0.50019127  0.74977163  0.50013530  1
  Cs  Cs3  1  0.00019603  0.75015081  0.99984240  1
  Y  Y4  1  0.49999845  0.99995786  0.99984322  1
  Y  Y5  1  0.99999613  0.49996439  0.50013476  1
  Re  Re6  1  0.99999782  0.99996423  0.49988274  1
  Re  Re7  1  0.49999678  0.49995986  0.00009523  1
  Br  Br8  1  0.49978428  0.25935167  0.99924578  1
  Br  Br9  1  0.24032937  0.00028301  0.25886326  1
  Br  Br10  1  0.75889430  0.00023765  0.25963514  1
  Br  Br11  1  0.99979871  0.24057148  0.50073446  1
  Br  Br12  1  0.24099818  0.99963134  0.74019958  1
  Br  Br13  1  0.75976607  0.99969258  0.74096776  1
  Br  Br14  1  0.50020945  0.74056623  0.00075567  1
  Br  Br15  1  0.74032295  0.49963601  0.24112145  1
  Br  Br16  1  0.25888782  0.49968900  0.24033916  1
  Br  Br17  1  0.00019571  0.75935733  0.49921538  1
  Br  Br18  1  0.25977064  0.50023358  0.75900306  1
  Br  Br19  1  0.74100892  0.50028315  0.75978919  1
