# generated using pymatgen
data_Cs2YInBr6
_symmetry_space_group_name_H-M   'P 1'
_cell_length_a   8.27544817
_cell_length_b   11.69649019
_cell_length_c   8.27552317
_cell_angle_alpha   89.98399436
_cell_angle_beta   89.99996031
_cell_angle_gamma   89.99974327
_symmetry_Int_Tables_number   1
_chemical_formula_structural   Cs2YInBr6
_chemical_formula_sum   'Cs4 Y2 In2 Br12'
_cell_volume   801.01846271
_cell_formula_units_Z   2
loop_
 _symmetry_equiv_pos_site_id
 _symmetry_equiv_pos_as_xyz
  1  'x, y, z'
loop_
 _atom_site_type_symbol
 _atom_site_label
 _atom_site_symmetry_multiplicity
 _atom_site_fract_x
 _atom_site_fract_y
 _atom_site_fract_z
 _atom_site_occupancy
  Cs  Cs0  1  0.49983647  0.24980155  0.49983157  1
  Cs  Cs1  1  0.99983304  0.25012321  0.00015320  1
  Cs  Cs2  1  0.50015833  0.74980390  0.50013338  1
  Cs  Cs3  1  0.00016258  0.75012367  0.99984593  1
  Y  Y4  1  0.49999697  0.99995895  0.99984512  1
  Y  Y5  1  0.99999761  0.49996459  0.50013315  1
  In  In6  1  0.99999643  0.99996661  0.49979619  1
  In  In7  1  0.49999692  0.49995914  0.00018159  1
  Br  Br8  1  0.49981119  0.23682260  0.99917920  1
  Br  Br9  1  0.26278992  0.00025766  0.23633039  1
  Br  Br10  1  0.73638480  0.00026665  0.23714788  1
  Br  Br11  1  0.99982279  0.26310079  0.50079983  1
  Br  Br12  1  0.26352092  0.99960320  0.76265080  1
  Br  Br13  1  0.73729042  0.99970740  0.76346683  1
  Br  Br14  1  0.50018312  0.76309594  0.00069846  1
  Br  Br15  1  0.76278383  0.49965869  0.26365659  1
  Br  Br16  1  0.23638084  0.49965537  0.26282470  1
  Br  Br17  1  0.00016999  0.73682773  0.49927342  1
  Br  Br18  1  0.23729860  0.50021533  0.73650267  1
  Br  Br19  1  0.76353061  0.50031135  0.73733792  1
