# generated using pymatgen
data_H6PbCI3N
_symmetry_space_group_name_H-M   'P 1'
_cell_length_a   8.65381473
_cell_length_b   12.54431927
_cell_length_c   8.53726818
_cell_angle_alpha   90.00100709
_cell_angle_beta   90.00909404
_cell_angle_gamma   89.99435953
_symmetry_Int_Tables_number   1
_chemical_formula_structural   H6PbCI3N
_chemical_formula_sum   'H24 Pb4 C4 I12 N4'
_cell_volume   926.77350335
_cell_formula_units_Z   4
loop_
 _symmetry_equiv_pos_site_id
 _symmetry_equiv_pos_as_xyz
  1  'x, y, z'
loop_
 _atom_site_type_symbol
 _atom_site_label
 _atom_site_symmetry_multiplicity
 _atom_site_fract_x
 _atom_site_fract_y
 _atom_site_fract_z
 _atom_site_occupancy
  C  C0  1  0.39567989  0.25015162  0.41551839  1
  C  C1  1  0.89707905  0.25013071  0.08582762  1
  C  C2  1  0.60431705  0.74985225  0.58449842  1
  C  C3  1  0.10292952  0.74986931  0.91418750  1
  N  N4  1  0.53302877  0.25005338  0.51998038  1
  N  N5  1  0.03369343  0.25004058  0.98043852  1
  N  N6  1  0.46696680  0.74994779  0.48003928  1
  N  N7  1  0.96631629  0.74995602  0.01957802  1
  H  H8  1  0.43535400  0.25018236  0.29366985  1
  H  H9  1  0.32734999  0.17846732  0.43870525  1
  H  H10  1  0.32748794  0.32189815  0.43882204  1
  H  H11  1  0.60058182  0.18288083  0.49795167  1
  H  H12  1  0.60070481  0.31715501  0.49803173  1
  H  H13  1  0.50311852  0.25003694  0.63843540  1
  H  H14  1  0.93770995  0.25015724  0.20739681  1
  H  H15  1  0.82861287  0.17842755  0.06319916  1
  H  H16  1  0.82872310  0.32187841  0.06309732  1
  H  H17  1  0.10136877  0.18287823  0.00199260  1
  H  H18  1  0.10147621  0.31714933  0.00192379  1
  H  H19  1  0.00297255  0.25002820  0.86214520  1
  H  H20  1  0.56464424  0.74982130  0.70634846  1
  H  H21  1  0.67250810  0.67810391  0.56119563  1
  H  H22  1  0.67264647  0.82153506  0.56131097  1
  H  H23  1  0.39941426  0.81712244  0.50206859  1
  H  H24  1  0.39929233  0.68284801  0.50198858  1
  H  H25  1  0.49687583  0.74996684  0.36158320  1
  H  H26  1  0.06229757  0.74984459  0.79261864  1
  H  H27  1  0.17139611  0.82157142  0.93682030  1
  H  H28  1  0.17128484  0.67812078  0.93691390  1
  H  H29  1  0.89863808  0.81711793  0.99802707  1
  H  H30  1  0.89853480  0.68284702  0.99809207  1
  H  H31  1  0.99703870  0.74996875  0.13787078  1
  Pb  Pb32  1  0.50000190  0.00001459  0.00000233  1
  Pb  Pb33  1  0.99997794  0.50000518  0.49997711  1
  Pb  Pb34  1  0.00000110  0.99999865  0.50002702  1
  Pb  Pb35  1  0.49999399  0.50001778  0.99997086  1
  I  I36  1  0.46759368  0.25001207  0.93614975  1
  I  I37  1  0.17366388  0.01609767  0.17105345  1
  I  I38  1  0.67360469  0.01632239  0.32893663  1
  I  I39  1  0.96703755  0.25000182  0.56440944  1
  I  I40  1  0.32641288  0.98368501  0.67107051  1
  I  I41  1  0.82634021  0.98389315  0.82896638  1
  I  I42  1  0.53241152  0.75001663  0.06386130  1
  I  I43  1  0.67362573  0.48368868  0.32889633  1
  I  I44  1  0.17372436  0.48394725  0.17107340  1
  I  I45  1  0.03296260  0.74999788  0.43560927  1
  I  I46  1  0.32635649  0.51631340  0.67109103  1
  I  I47  1  0.82627255  0.51605688  0.82892464  1
