# generated using pymatgen
data_ZrHgH12C2(I3N)2
_symmetry_space_group_name_H-M   'P 1'
_cell_length_a   8.64223705
_cell_length_b   12.51656487
_cell_length_c   8.52047969
_cell_angle_alpha   84.30613057
_cell_angle_beta   90.00038897
_cell_angle_gamma   90.05847064
_symmetry_Int_Tables_number   1
_chemical_formula_structural   ZrHgH12C2(I3N)2
_chemical_formula_sum   'Zr2 Hg2 H24 C4 I12 N4'
_cell_volume   917.12201274
_cell_formula_units_Z   2
loop_
 _symmetry_equiv_pos_site_id
 _symmetry_equiv_pos_as_xyz
  1  'x, y, z'
loop_
 _atom_site_type_symbol
 _atom_site_label
 _atom_site_symmetry_multiplicity
 _atom_site_fract_x
 _atom_site_fract_y
 _atom_site_fract_z
 _atom_site_occupancy
  C  C0  1  0.39840023  0.24996775  0.41418372  1
  C  C1  1  0.89943334  0.25006181  0.08679599  1
  C  C2  1  0.60159494  0.75003357  0.58583233  1
  C  C3  1  0.10057555  0.74993924  0.91321447  1
  N  N4  1  0.53783301  0.24730261  0.51715036  1
  N  N5  1  0.03831808  0.25270483  0.98304817  1
  N  N6  1  0.46215995  0.75270409  0.48286770  1
  N  N7  1  0.96168994  0.74729356  0.01696117  1
  H  H8  1  0.43612444  0.25443596  0.29092996  1
  H  H9  1  0.33109004  0.17656625  0.44414312  1
  H  H10  1  0.32992013  0.32078113  0.43446679  1
  H  H11  1  0.60631004  0.18169126  0.49883967  1
  H  H12  1  0.60391104  0.31677680  0.49188562  1
  H  H13  1  0.50906590  0.24195261  0.63693107  1
  H  H14  1  0.93780741  0.24561131  0.20982431  1
  H  H15  1  0.83057455  0.17923088  0.06692404  1
  H  H16  1  0.83225311  0.32346228  0.05720385  1
  H  H17  1  0.10428935  0.18324155  0.00802086  1
  H  H18  1  0.10712046  0.31833324  0.00095488  1
  H  H19  1  0.00896548  0.25801672  0.86344413  1
  H  H20  1  0.56387346  0.74556697  0.70908749  1
  H  H21  1  0.67007278  0.67922176  0.56554783  1
  H  H22  1  0.66890637  0.82343643  0.55587189  1
  H  H23  1  0.39368444  0.81831184  0.50118064  1
  H  H24  1  0.39608179  0.68322595  0.50813283  1
  H  H25  1  0.49092617  0.75805235  0.36308757  1
  H  H26  1  0.06220191  0.75439194  0.79018554  1
  H  H27  1  0.16943302  0.82077073  0.93308954  1
  H  H28  1  0.16775688  0.67653954  0.94280394  1
  H  H29  1  0.89571698  0.81675569  0.99199144  1
  H  H30  1  0.89288969  0.68166420  0.99905262  1
  H  H31  1  0.99104184  0.74197998  0.13656616  1
  Zr  Zr32  1  0.50000433  0.00000617  0.00001116  1
  Zr  Zr33  1  0.99999329  0.50000057  0.49999847  1
  Hg  Hg34  1  0.00000592  0.99999935  0.50001340  1
  Hg  Hg35  1  0.49999189  0.50001558  0.99998622  1
  I  I36  1  0.47653619  0.22923400  0.93362448  1
  I  I37  1  0.20025458  -0.00044820  0.14407952  1
  I  I38  1  0.64062077  0.02265265  0.29950411  1
  I  I39  1  0.97589873  0.27079199  0.56665294  1
  I  I40  1  0.35939029  0.97735903  0.70051741  1
  I  I41  1  0.79975318  1.00045242  0.85594187  1
  I  I42  1  0.52347322  0.77077879  0.06640122  1
  I  I43  1  0.70039954  0.50029647  0.35555690  1
  I  I44  1  0.14094771  0.47750631  0.20066068  1
  I  I45  1  0.02409029  0.72920971  0.43335417  1
  I  I46  1  0.29959211  0.49970345  0.64443359  1
  I  I47  1  0.85904937  0.52249516  0.79934071  1
