# generated using pymatgen
data_Cs2BaRuBr6
_symmetry_space_group_name_H-M   'P 1'
_cell_length_a   7.96805211
_cell_length_b   11.26442858
_cell_length_c   7.96809626
_cell_angle_alpha   89.99080903
_cell_angle_beta   89.99999350
_cell_angle_gamma   89.99979442
_symmetry_Int_Tables_number   1
_chemical_formula_structural   Cs2BaRuBr6
_chemical_formula_sum   'Cs4 Ba2 Ru2 Br12'
_cell_volume   715.18088464
_cell_formula_units_Z   2
loop_
 _symmetry_equiv_pos_site_id
 _symmetry_equiv_pos_as_xyz
  1  'x, y, z'
loop_
 _atom_site_type_symbol
 _atom_site_label
 _atom_site_symmetry_multiplicity
 _atom_site_fract_x
 _atom_site_fract_y
 _atom_site_fract_z
 _atom_site_occupancy
  Cs  Cs0  1  0.49980340  0.24974399  0.49984205  1
  Cs  Cs1  1  0.99979888  0.25017969  0.00014410  1
  Cs  Cs2  1  0.50019202  0.74974258  0.50017469  1
  Cs  Cs3  1  0.00019633  0.75017799  0.99980376  1
  Ru  Ru4  1  0.49999775  0.99995895  0.99987561  1
  Ru  Ru5  1  0.99999697  0.49996460  0.50010258  1
  Ba  Ba6  1  0.99999848  0.99996691  0.49980442  1
  Ba  Ba7  1  0.49999576  0.49995800  0.00017374  1
  Br  Br8  1  0.49977152  0.22554062  0.99911531  1
  Br  Br9  1  0.27405679  0.00030261  0.22505739  1
  Br  Br10  1  0.72508412  0.00028138  0.22591265  1
  Br  Br11  1  0.99978609  0.27438402  0.50086415  1
  Br  Br12  1  0.27477959  0.99957985  0.77390662  1
  Br  Br13  1  0.72606635  0.99967343  0.77475649  1
  Br  Br14  1  0.50022311  0.77437722  0.00076202  1
  Br  Br15  1  0.77404933  0.49961467  0.27492559  1
  Br  Br16  1  0.22507792  0.49964497  0.27406013  1
  Br  Br17  1  0.00020761  0.72554773  0.49920931  1
  Br  Br18  1  0.22607294  0.50025195  0.72521403  1
  Br  Br19  1  0.77479042  0.50033317  0.72608416  1
