# generated using pymatgen
data_Cs2HfPdBr6
_symmetry_space_group_name_H-M   'P 1'
_cell_length_a   7.75890580
_cell_length_b   10.96106256
_cell_length_c   7.75890250
_cell_angle_alpha   90.01518189
_cell_angle_beta   90.00002033
_cell_angle_gamma   90.00017997
_symmetry_Int_Tables_number   1
_chemical_formula_structural   Cs2HfPdBr6
_chemical_formula_sum   'Cs4 Hf2 Pd2 Br12'
_cell_volume   659.86244998
_cell_formula_units_Z   2
loop_
 _symmetry_equiv_pos_site_id
 _symmetry_equiv_pos_as_xyz
  1  'x, y, z'
loop_
 _atom_site_type_symbol
 _atom_site_label
 _atom_site_symmetry_multiplicity
 _atom_site_fract_x
 _atom_site_fract_y
 _atom_site_fract_z
 _atom_site_occupancy
  Cs  Cs0  1  0.49979745  0.24975596  0.49983164  1
  Cs  Cs1  1  0.99979270  0.25016717  0.00015384  1
  Cs  Cs2  1  0.50019778  0.74975404  0.50018863  1
  Cs  Cs3  1  0.00020230  0.75016613  0.99978870  1
  Pd  Pd4  1  0.50000002  0.99995414  0.99976328  1
  Pd  Pd5  1  0.99999583  0.49996697  0.50021660  1
  Hf  Hf6  1  0.99999746  0.99996469  0.49985825  1
  Hf  Hf7  1  0.49999615  0.49995833  0.00011963  1
  Br  Br8  1  0.49980686  0.25930870  0.99929886  1
  Br  Br9  1  0.24012323  0.00030717  0.25907652  1
  Br  Br10  1  0.75909623  0.00019777  0.25985195  1
  Br  Br11  1  0.99982134  0.24061741  0.50068123  1
  Br  Br12  1  0.24079235  0.99966587  0.74000132  1
  Br  Br13  1  0.75997455  0.99967896  0.74077316  1
  Br  Br14  1  0.50018598  0.74060917  0.00076594  1
  Br  Br15  1  0.74011740  0.49961314  0.24090842  1
  Br  Br16  1  0.25908992  0.49973039  0.24012227  1
  Br  Br17  1  0.00017376  0.75931182  0.49920497  1
  Br  Br18  1  0.25997992  0.50024728  0.75919640  1
  Br  Br19  1  0.74080416  0.50024922  0.75998720  1
