# generated using pymatgen
data_Cs2AgSbBr6
_symmetry_space_group_name_H-M   'P 1'
_cell_length_a   7.95952166
_cell_length_b   11.24525109
_cell_length_c   7.95955477
_cell_angle_alpha   90.00596177
_cell_angle_beta   89.99989791
_cell_angle_gamma   90.00016542
_symmetry_Int_Tables_number   1
_chemical_formula_structural   Cs2AgSbBr6
_chemical_formula_sum   'Cs4 Ag2 Sb2 Br12'
_cell_volume   712.43442958
_cell_formula_units_Z   2
loop_
 _symmetry_equiv_pos_site_id
 _symmetry_equiv_pos_as_xyz
  1  'x, y, z'
loop_
 _atom_site_type_symbol
 _atom_site_label
 _atom_site_symmetry_multiplicity
 _atom_site_fract_x
 _atom_site_fract_y
 _atom_site_fract_z
 _atom_site_occupancy
  Cs  Cs0  1  0.49986434  0.24987799  0.49987462  1
  Cs  Cs1  1  0.99986072  0.25004537  0.00010772  1
  Cs  Cs2  1  0.50013020  0.74987728  0.50012187  1
  Cs  Cs3  1  0.00013404  0.75004430  0.99985621  1
  Ag  Ag4  1  0.49999806  0.99995774  0.99987994  1
  Ag  Ag5  1  0.99999736  0.49996627  0.50010092  1
  Sb  Sb6  1  0.99999742  0.99996386  0.49990897  1
  Sb  Sb7  1  0.49999711  0.49995882  0.00006998  1
  Br  Br8  1  0.49984748  0.25053454  0.99949928  1
  Br  Br9  1  0.24896421  0.00016363  0.25046696  1
  Br  Br10  1  0.75052553  0.00012421  0.25097241  1
  Br  Br11  1  0.99986469  0.24938877  0.50047781  1
  Br  Br12  1  0.24944176  0.99977506  0.74887988  1
  Br  Br13  1  0.75105757  0.99978251  0.74938452  1
  Br  Br14  1  0.50014727  0.74938424  0.00051151  1
  Br  Br15  1  0.74895940  0.49975252  0.24951590  1
  Br  Br16  1  0.25052103  0.49980387  0.24900226  1
  Br  Br17  1  0.00012906  0.75053877  0.49946393  1
  Br  Br18  1  0.25106106  0.50014528  0.75059026  1
  Br  Br19  1  0.74944706  0.50013929  0.75110387  1
