# generated using pymatgen
data_ZrH12PdC2(I3N)2
_symmetry_space_group_name_H-M   'P 1'
_cell_length_a   8.18377406
_cell_length_b   11.66630874
_cell_length_c   8.15094913
_cell_angle_alpha   88.31252621
_cell_angle_beta   90.07414623
_cell_angle_gamma   90.03105739
_symmetry_Int_Tables_number   1
_chemical_formula_structural   ZrH12PdC2(I3N)2
_chemical_formula_sum   'Zr2 H24 Pd2 C4 I12 N4'
_cell_volume   777.86901992
_cell_formula_units_Z   2
loop_
 _symmetry_equiv_pos_site_id
 _symmetry_equiv_pos_as_xyz
  1  'x, y, z'
loop_
 _atom_site_type_symbol
 _atom_site_label
 _atom_site_symmetry_multiplicity
 _atom_site_fract_x
 _atom_site_fract_y
 _atom_site_fract_z
 _atom_site_occupancy
  C  C0  1  0.41130602  0.24812999  0.41935634  1
  C  C1  1  0.91226215  0.25195321  0.08109815  1
  C  C2  1  0.58869436  0.75188136  0.58065517  1
  C  C3  1  0.08773932  0.74805569  0.91890711  1
  N  N4  1  0.55494701  0.24628268  0.52994530  1
  N  N5  1  0.05526867  0.25371629  0.97005734  1
  N  N6  1  0.44505010  0.75371993  0.47007111  1
  N  N7  1  0.94473559  0.74628845  0.02995153  1
  H  H8  1  0.45412000  0.25181444  0.29227244  1
  H  H9  1  0.33917755  0.17045602  0.44224766  1
  H  H10  1  0.33878312  0.32421265  0.44395918  1
  H  H11  1  0.62666359  0.17479632  0.50924821  1
  H  H12  1  0.62686617  0.31849737  0.50693015  1
  H  H13  1  0.52221060  0.24481606  0.65378302  1
  H  H14  1  0.95583982  0.24830130  0.20803168  1
  H  H15  1  0.83939840  0.17588703  0.05683614  1
  H  H16  1  0.84020403  0.32965761  0.05842008  1
  H  H17  1  0.12712548  0.18146526  0.99291398  1
  H  H18  1  0.12726918  0.32517201  0.99044801  1
  H  H19  1  0.02187218  0.25513435  0.84630609  1
  H  H20  1  0.54588255  0.74819562  0.70773942  1
  H  H21  1  0.66121865  0.67579882  0.55605553  1
  H  H22  1  0.66082120  0.82955562  0.55775544  1
  H  H23  1  0.37333270  0.82520683  0.49076104  1
  H  H24  1  0.37313511  0.68150322  0.49309687  1
  H  H25  1  0.47778215  0.75518441  0.34623341  1
  H  H26  1  0.04416195  0.75170636  0.79197374  1
  H  H27  1  0.16059917  0.82412325  0.94317237  1
  H  H28  1  0.15979857  0.67035125  0.94158524  1
  H  H29  1  0.87287627  0.81853919  0.00710448  1
  H  H30  1  0.87273788  0.67483146  0.00956341  1
  H  H31  1  0.97813971  0.74487013  0.15370052  1
  Zr  Zr32  1  0.50001429  -0.00001519  -0.00005424  1
  Zr  Zr33  1  -0.00006143  0.50001836  0.49999529  1
  Pd  Pd34  1  -0.00022767  -0.00012721  0.50024618  1
  Pd  Pd35  1  0.50025459  0.50001030  -0.00012399  1
  I  I36  1  0.48916329  0.24846737  0.95741778  1
  I  I37  1  0.19978341  0.00535829  0.18987582  1
  I  I38  1  0.69078741  0.01059277  0.29926220  1
  I  I39  1  0.98881650  0.25153685  0.54277109  1
  I  I40  1  0.30923032  0.98942948  0.70069316  1
  I  I41  1  0.80030580  0.99466183  0.81015259  1
  I  I42  1  0.51080306  0.75152674  0.04259275  1
  I  I43  1  0.69943076  0.49450365  0.30972336  1
  I  I44  1  0.19050066  0.48960405  0.20110447  1
  I  I45  1  0.01120174  0.74848731  0.45720436  1
  I  I46  1  0.30049581  0.50551189  0.69030315  1
  I  I47  1  0.80950593  0.51040763  0.79895247  1
