# generated using pymatgen
data_Cs2HfCdBr6
_symmetry_space_group_name_H-M   'P 1'
_cell_length_a   8.32682646
_cell_length_b   11.78320792
_cell_length_c   8.32684438
_cell_angle_alpha   90.02731586
_cell_angle_beta   89.99996871
_cell_angle_gamma   90.00034819
_symmetry_Int_Tables_number   1
_chemical_formula_structural   Cs2HfCdBr6
_chemical_formula_sum   'Cs4 Hf2 Cd2 Br12'
_cell_volume   817.00262753
_cell_formula_units_Z   2
loop_
 _symmetry_equiv_pos_site_id
 _symmetry_equiv_pos_as_xyz
  1  'x, y, z'
loop_
 _atom_site_type_symbol
 _atom_site_label
 _atom_site_symmetry_multiplicity
 _atom_site_fract_x
 _atom_site_fract_y
 _atom_site_fract_z
 _atom_site_occupancy
  Cs  Cs0  1  0.49980472  0.24975714  0.49985186  1
  Cs  Cs1  1  0.99980019  0.25015367  0.00013355  1
  Cs  Cs2  1  0.50019052  0.74976755  0.50017876  1
  Cs  Cs3  1  0.00019450  0.75016454  0.99979855  1
  Cd  Cd4  1  0.49999998  0.99995480  0.99974459  1
  Cd  Cd5  1  0.99999551  0.49996741  0.50023330  1
  Hf  Hf6  1  0.99999754  0.99996498  0.49985063  1
  Hf  Hf7  1  0.49999610  0.49995794  0.00012741  1
  Br  Br8  1  0.49980473  0.27795504  0.99926706  1
  Br  Br9  1  0.22184120  0.00036069  0.27731837  1
  Br  Br10  1  0.77731891  0.00021128  0.27815388  1
  Br  Br11  1  0.99982103  0.22196944  0.50071322  1
  Br  Br12  1  0.22253257  0.99964308  0.72170018  1
  Br  Br13  1  0.77829413  0.99963648  0.72253167  1
  Br  Br14  1  0.50018714  0.72196198  0.00085600  1
  Br  Br15  1  0.72183330  0.49955940  0.22266556  1
  Br  Br16  1  0.27731401  0.49971722  0.22182072  1
  Br  Br17  1  0.00017458  0.77796133  0.49911429  1
  Br  Br18  1  0.27830101  0.50028981  0.77743877  1
  Br  Br19  1  0.72254371  0.50027055  0.77829046  1
