# generated using pymatgen
data_Cs2TlInBr6
_symmetry_space_group_name_H-M   'P 1'
_cell_length_a   8.17046279
_cell_length_b   11.55805345
_cell_length_c   8.17055531
_cell_angle_alpha   89.98874393
_cell_angle_beta   89.99995787
_cell_angle_gamma   89.99949903
_symmetry_Int_Tables_number   1
_chemical_formula_structural   Cs2TlInBr6
_chemical_formula_sum   'Cs4 Tl2 In2 Br12'
_cell_volume   771.58348089
_cell_formula_units_Z   2
loop_
 _symmetry_equiv_pos_site_id
 _symmetry_equiv_pos_as_xyz
  1  'x, y, z'
loop_
 _atom_site_type_symbol
 _atom_site_label
 _atom_site_symmetry_multiplicity
 _atom_site_fract_x
 _atom_site_fract_y
 _atom_site_fract_z
 _atom_site_occupancy
  Cs  Cs0  1  0.49985024  0.24982917  0.49985864  1
  Cs  Cs1  1  0.99984669  0.25009669  0.00012622  1
  Cs  Cs2  1  0.50014486  0.74983205  0.50011574  1
  Cs  Cs3  1  0.00014913  0.75009833  0.99986363  1
  In  In4  1  0.49999735  0.99995924  0.99984159  1
  In  In5  1  0.99999749  0.49996462  0.50013599  1
  Tl  Tl6  1  0.99999719  0.99996651  0.49979824  1
  Tl  Tl7  1  0.49999656  0.49995961  0.00017895  1
  Br  Br8  1  0.49982796  0.23334379  0.99921756  1
  Br  Br9  1  0.26630080  0.00023856  0.23293623  1
  Br  Br10  1  0.73298537  0.00025506  0.23364436  1
  Br  Br11  1  0.99983575  0.26657950  0.50076263  1
  Br  Br12  1  0.26691755  0.99961899  0.76616660  1
  Br  Br13  1  0.73377934  0.99971887  0.76686971  1
  Br  Br14  1  0.50016775  0.76657512  0.00062635  1
  Br  Br15  1  0.76629591  0.49967922  0.26704715  1
  Br  Br16  1  0.23298357  0.49966289  0.26633195  1
  Br  Br17  1  0.00015718  0.73334846  0.49934667  1
  Br  Br18  1  0.23378721  0.50020006  0.73310070  1
  Br  Br19  1  0.76692748  0.50029761  0.73381992  1
