# generated using pymatgen
data_Cs2InIrBr6
_symmetry_space_group_name_H-M   'P 1'
_cell_length_a   7.81917712
_cell_length_b   11.06032928
_cell_length_c   7.81918221
_cell_angle_alpha   90.01078479
_cell_angle_beta   90.00008227
_cell_angle_gamma   90.00015157
_symmetry_Int_Tables_number   1
_chemical_formula_structural   Cs2InIrBr6
_chemical_formula_sum   'Cs4 In2 Ir2 Br12'
_cell_volume   676.22377137
_cell_formula_units_Z   2
loop_
 _symmetry_equiv_pos_site_id
 _symmetry_equiv_pos_as_xyz
  1  'x, y, z'
loop_
 _atom_site_type_symbol
 _atom_site_label
 _atom_site_symmetry_multiplicity
 _atom_site_fract_x
 _atom_site_fract_y
 _atom_site_fract_z
 _atom_site_occupancy
  Cs  Cs0  1  0.49986709  0.24989223  0.49985611  1
  Cs  Cs1  1  0.99986419  0.25003725  0.00012912  1
  Cs  Cs2  1  0.50012731  0.74989130  0.50009678  1
  Cs  Cs3  1  0.00013184  0.75003783  0.99988246  1
  In  In4  1  0.49999837  0.99996284  0.99980613  1
  In  In5  1  0.99999682  0.49996681  0.50017003  1
  Ir  Ir6  1  0.99999645  0.99996197  0.49989558  1
  Ir  Ir7  1  0.49999762  0.49995977  0.00008190  1
  Br  Br8  1  0.49982838  0.27109561  0.99949124  1
  Br  Br9  1  0.22857752  0.00022390  0.27081053  1
  Br  Br10  1  0.77084814  0.00012902  0.27137609  1
  Br  Br11  1  0.99983741  0.22882585  0.50049246  1
  Br  Br12  1  0.22907826  0.99976755  0.72847371  1
  Br  Br13  1  0.77148028  0.99971820  0.72903768  1
  Br  Br14  1  0.50016638  0.72882318  0.00064849  1
  Br  Br15  1  0.72857283  0.49969433  0.22917336  1
  Br  Br16  1  0.27084641  0.49979246  0.22859651  1
  Br  Br17  1  0.00015628  0.77109782  0.49932458  1
  Br  Br18  1  0.27148691  0.50020057  0.77093323  1
  Br  Br19  1  0.72908688  0.50014585  0.77151283  1
