# generated using pymatgen
data_Cs2SnPbBr6
_symmetry_space_group_name_H-M   'P 1'
_cell_length_a   8.25199866
_cell_length_b   11.66852719
_cell_length_c   8.25207082
_cell_angle_alpha   89.99925179
_cell_angle_beta   89.99999232
_cell_angle_gamma   89.99998039
_symmetry_Int_Tables_number   1
_chemical_formula_structural   Cs2SnPbBr6
_chemical_formula_sum   'Cs4 Sn2 Pb2 Br12'
_cell_volume   794.58092943
_cell_formula_units_Z   2
loop_
 _symmetry_equiv_pos_site_id
 _symmetry_equiv_pos_as_xyz
  1  'x, y, z'
loop_
 _atom_site_type_symbol
 _atom_site_label
 _atom_site_symmetry_multiplicity
 _atom_site_fract_x
 _atom_site_fract_y
 _atom_site_fract_z
 _atom_site_occupancy
  Cs  Cs0  1  0.49978978  0.24970554  0.49981030  1
  Cs  Cs1  1  0.99978569  0.25021426  0.00017626  1
  Cs  Cs2  1  0.50020506  0.74970486  0.50017562  1
  Cs  Cs3  1  0.00021023  0.75021327  0.99980275  1
  Sn  Sn4  1  0.49999894  0.99995817  0.99980314  1
  Sn  Sn5  1  0.99999629  0.49996754  0.50017530  1
  Pb  Pb6  1  0.99999836  0.99996782  0.49979676  1
  Pb  Pb7  1  0.49999548  0.49995811  0.00018162  1
  Br  Br8  1  0.49973464  0.24737611  0.99908533  1
  Br  Br9  1  0.25226309  0.00034921  0.24686878  1
  Br  Br10  1  0.74685374  0.00027761  0.24775033  1
  Br  Br11  1  0.99975173  0.25254992  0.50089303  1
  Br  Br12  1  0.25292808  0.99956405  0.75207340  1
  Br  Br13  1  0.74794205  0.99965027  0.75294744  1
  Br  Br14  1  0.50025856  0.75254059  0.00088173  1
  Br  Br15  1  0.75225540  0.49956889  0.25311332  1
  Br  Br16  1  0.24684746  0.49964970  0.25222542  1
  Br  Br17  1  0.00024245  0.74738530  0.49908652  1
  Br  Br18  1  0.24794778  0.50027515  0.74702297  1
  Br  Br19  1  0.75294055  0.50034797  0.74791879  1
