# generated using pymatgen
data_BaH12RuC2(I3N)2
_symmetry_space_group_name_H-M   'P 1'
_cell_length_a   8.41967186
_cell_length_b   12.10539804
_cell_length_c   8.26564511
_cell_angle_alpha   87.41135379
_cell_angle_beta   90.00447308
_cell_angle_gamma   90.02119989
_symmetry_Int_Tables_number   1
_chemical_formula_structural   BaH12RuC2(I3N)2
_chemical_formula_sum   'Ba2 H24 Ru2 C4 I12 N4'
_cell_volume   841.60354799
_cell_formula_units_Z   2
loop_
 _symmetry_equiv_pos_site_id
 _symmetry_equiv_pos_as_xyz
  1  'x, y, z'
loop_
 _atom_site_type_symbol
 _atom_site_label
 _atom_site_symmetry_multiplicity
 _atom_site_fract_x
 _atom_site_fract_y
 _atom_site_fract_z
 _atom_site_occupancy
  C  C0  1  0.39517457  0.25046640  0.41367957  1
  C  C1  1  0.89635833  0.24969064  0.08747312  1
  C  C2  1  0.60482236  0.74953661  0.58633534  1
  C  C3  1  0.10364828  0.75031076  0.91253832  1
  N  N4  1  0.53627608  0.24902422  0.52065950  1
  N  N5  1  0.03676246  0.25101257  0.97957668  1
  N  N6  1  0.46371979  0.75098129  0.47935680  1
  N  N7  1  0.96324460  0.74898543  0.02043535  1
  H  H8  1  0.43493491  0.25159784  0.28740975  1
  H  H9  1  0.32644407  0.17518019  0.44027166  1
  H  H10  1  0.32387986  0.32360242  0.43619499  1
  H  H11  1  0.60554809  0.18037520  0.49828054  1
  H  H12  1  0.60565252  0.31943174  0.49704883  1
  H  H13  1  0.50587688  0.24537013  0.64362992  1
  H  H14  1  0.93697278  0.24859005  0.21344849  1
  H  H15  1  0.82472214  0.17657245  0.06550223  1
  H  H16  1  0.82765164  0.32502231  0.06134481  1
  H  H17  1  0.10611739  0.18058384  0.00286856  1
  H  H18  1  0.10634329  0.31964856  0.00149203  1
  H  H19  1  0.00567456  0.25464053  0.85681529  1
  H  H20  1  0.56506370  0.74840619  0.71260566  1
  H  H21  1  0.67611492  0.67640022  0.56381892  1
  H  H22  1  0.67355465  0.82482251  0.55974252  1
  H  H23  1  0.39444883  0.81962950  0.50173755  1
  H  H24  1  0.39434282  0.68057270  0.50296670  1
  H  H25  1  0.49411842  0.75463562  0.35638639  1
  H  H26  1  0.06303370  0.75141353  0.78656283  1
  H  H27  1  0.17528414  0.82342857  0.93451280  1
  H  H28  1  0.17235532  0.67497882  0.93866320  1
  H  H29  1  0.89388689  0.81941289  0.99714600  1
  H  H30  1  0.89366650  0.68034809  0.99851988  1
  H  H31  1  0.99433334  0.74535716  0.14319690  1
  Ru  Ru32  1  0.50000334  0.00000431  0.00000889  1
  Ru  Ru33  1  0.99999589  0.50000196  0.49999991  1
  Ba  Ba34  1  0.00000246  0.00000208  0.50000878  1
  Ba  Ba35  1  0.49999626  0.50000681  0.99999715  1
  I  I36  1  0.47483491  0.22395139  0.94335187  1
  I  I37  1  0.21186767  0.00453086  0.15242444  1
  I  I38  1  0.65014645  0.01790419  0.29342848  1
  I  I39  1  0.97426226  0.27607457  0.55718157  1
  I  I40  1  0.34985955  0.98210454  0.70658947  1
  I  I41  1  0.78813975  0.99547347  0.84759396  1
  I  I42  1  0.52517146  0.77605861  0.05666721  1
  I  I43  1  0.71198838  0.49526569  0.34735842  1
  I  I44  1  0.15038044  0.48220313  0.20669294  1
  I  I45  1  0.02572986  0.72392970  0.44282588  1
  I  I46  1  0.28800322  0.50473744  0.65263904  1
  I  I47  1  0.84961400  0.51780057  0.79330746  1
