# generated using pymatgen
data_Cs2BaPbBr6
_symmetry_space_group_name_H-M   'P 1'
_cell_length_a   8.54799739
_cell_length_b   12.08532004
_cell_length_c   8.54733849
_cell_angle_alpha   90.00179192
_cell_angle_beta   89.99999967
_cell_angle_gamma   89.99954659
_symmetry_Int_Tables_number   1
_chemical_formula_structural   Cs2BaPbBr6
_chemical_formula_sum   'Cs4 Ba2 Pb2 Br12'
_cell_volume   882.98523068
_cell_formula_units_Z   2
loop_
 _symmetry_equiv_pos_site_id
 _symmetry_equiv_pos_as_xyz
  1  'x, y, z'
loop_
 _atom_site_type_symbol
 _atom_site_label
 _atom_site_symmetry_multiplicity
 _atom_site_fract_x
 _atom_site_fract_y
 _atom_site_fract_z
 _atom_site_occupancy
  Cs  Cs0  1  0.49971778  0.24960459  0.49970829  1
  Cs  Cs1  1  0.99972221  0.25032385  0.00027806  1
  Cs  Cs2  1  0.50027168  0.74960099  0.50023703  1
  Cs  Cs3  1  0.00029011  0.75032587  0.99974096  1
  Ba  Ba4  1  0.50004098  0.99994611  0.99973093  1
  Ba  Ba5  1  0.99995218  0.49997035  0.50025364  1
  Pb  Pb6  1  0.00003667  0.99996864  0.49975089  1
  Pb  Pb7  1  0.49995336  0.49994755  0.00023224  1
  Br  Br8  1  0.49967641  0.25605808  0.99864580  1
  Br  Br9  1  0.24332883  0.00065469  0.25519528  1
  Br  Br10  1  0.75513400  0.00051015  0.25680324  1
  Br  Br11  1  0.99972116  0.24385914  0.50134137  1
  Br  Br12  1  0.24454320  0.99926629  0.74311065  1
  Br  Br13  1  0.75702121  0.99940720  0.74460302  1
  Br  Br14  1  0.50030323  0.74383811  0.00137123  1
  Br  Br15  1  0.74329928  0.49925957  0.24473756  1
  Br  Br16  1  0.25508273  0.49942390  0.24320614  1
  Br  Br17  1  0.00031339  0.75607871  0.49859700  1
  Br  Br18  1  0.25701091  0.50053850  0.75531094  1
  Br  Br19  1  0.74452605  0.50064204  0.75693455  1
