# generated using pymatgen
data_CsCCl3
_symmetry_space_group_name_H-M   'P 1'
_cell_length_a   7.24379883
_cell_length_b   10.43982215
_cell_length_c   7.57442134
_cell_angle_alpha   90.00005600
_cell_angle_beta   89.99966527
_cell_angle_gamma   90.00017371
_symmetry_Int_Tables_number   1
_chemical_formula_structural   CsCCl3
_chemical_formula_sum   'Cs4 C4 Cl12'
_cell_volume   572.80782340
_cell_formula_units_Z   4
loop_
 _symmetry_equiv_pos_site_id
 _symmetry_equiv_pos_as_xyz
  1  'x, y, z'
loop_
 _atom_site_type_symbol
 _atom_site_label
 _atom_site_symmetry_multiplicity
 _atom_site_fract_x
 _atom_site_fract_y
 _atom_site_fract_z
 _atom_site_occupancy
  Cs  Cs0  1  0.50000380  0.25571636  0.48507017  1
  Cs  Cs1  1  0.00002346  0.25582263  0.98573492  1
  Cs  Cs2  1  0.49999799  0.75569972  0.51491575  1
  Cs  Cs3  1  0.99996987  0.75583377  0.01424654  1
  C  C4  1  0.50003323  0.02858656  0.94065612  1
  C  C5  1  0.99999775  0.52800361  0.55924237  1
  C  C6  1  0.00000231  0.02800539  0.44074941  1
  C  C7  1  0.49995240  0.52860742  0.05930066  1
  Cl  Cl8  1  0.50002857  0.20965563  0.97059587  1
  Cl  Cl9  1  0.20520777  0.00293709  0.28645461  1
  Cl  Cl10  1  0.79480041  0.00294503  0.28644972  1
  Cl  Cl11  1  0.00000837  0.20903881  0.47085956  1
  Cl  Cl12  1  0.29483000  0.00343757  0.78639759  1
  Cl  Cl13  1  0.70521878  0.00344418  0.78637391  1
  Cl  Cl14  1  0.49996056  0.70967918  0.02939879  1
  Cl  Cl15  1  0.70515976  0.50344011  0.21355104  1
  Cl  Cl16  1  0.29477090  0.50344870  0.21358415  1
  Cl  Cl17  1  0.99999273  0.70903582  0.52912471  1
  Cl  Cl18  1  0.20519693  0.50294754  0.71354560  1
  Cl  Cl19  1  0.79478979  0.50293920  0.71353733  1
