# generated using pymatgen
data_TlH12RhC2(I3N)2
_symmetry_space_group_name_H-M   'P 1'
_cell_length_a   8.39752108
_cell_length_b   11.98026892
_cell_length_c   8.24555282
_cell_angle_alpha   86.01044187
_cell_angle_beta   90.00168552
_cell_angle_gamma   90.03419536
_symmetry_Int_Tables_number   1
_chemical_formula_structural   TlH12RhC2(I3N)2
_chemical_formula_sum   'Tl2 H24 Rh2 C4 I12 N4'
_cell_volume   827.52988605
_cell_formula_units_Z   2
loop_
 _symmetry_equiv_pos_site_id
 _symmetry_equiv_pos_as_xyz
  1  'x, y, z'
loop_
 _atom_site_type_symbol
 _atom_site_label
 _atom_site_symmetry_multiplicity
 _atom_site_fract_x
 _atom_site_fract_y
 _atom_site_fract_z
 _atom_site_occupancy
  C  C0  1  0.39746707  0.24929196  0.41329796  1
  C  C1  1  0.89858168  0.25081392  0.08774733  1
  C  C2  1  0.60252802  0.75071180  0.58671374  1
  C  C3  1  0.10142534  0.74918859  0.91226325  1
  N  N4  1  0.53890409  0.24733891  0.52084841  1
  N  N5  1  0.03936891  0.25270052  0.97936361  1
  N  N6  1  0.46108965  0.75266511  0.47916505  1
  N  N7  1  0.96063924  0.74730028  0.02064818  1
  H  H8  1  0.43754003  0.25249944  0.28671954  1
  H  H9  1  0.32846628  0.17294308  0.44124044  1
  H  H10  1  0.32624512  0.32300101  0.43514284  1
  H  H11  1  0.60940269  0.17869152  0.50049443  1
  H  H12  1  0.60781368  0.31899503  0.49662919  1
  H  H13  1  0.50795172  0.24248383  0.64409641  1
  H  H14  1  0.93942058  0.24764261  0.21406667  1
  H  H15  1  0.82702302  0.17709989  0.06642728  1
  H  H16  1  0.82961779  0.32718079  0.06023067  1
  H  H17  1  0.10821750  0.18102708  0.00323720  1
  H  H18  1  0.11017599  0.32133820  0.99923315  1
  H  H19  1  0.00773705  0.25752099  0.85628251  1
  H  H20  1  0.56245663  0.74750439  0.71329272  1
  H  H21  1  0.67374909  0.67700244  0.56486797  1
  H  H22  1  0.67152905  0.82706039  0.55877030  1
  H  H23  1  0.39059139  0.82131242  0.49952029  1
  H  H24  1  0.39218038  0.68100898  0.50338436  1
  H  H25  1  0.49204115  0.75752071  0.35591670  1
  H  H26  1  0.06058625  0.75236235  0.78594418  1
  H  H27  1  0.17298453  0.82290229  0.93358618  1
  H  H28  1  0.17038948  0.67282141  0.93977679  1
  H  H29  1  0.89178839  0.81897256  0.99677546  1
  H  H30  1  0.88983308  0.67866125  0.00077666  1
  H  H31  1  0.99227038  0.74247878  0.14372828  1
  Rh  Rh32  1  0.50000386  0.00000232  0.00000699  1
  Rh  Rh33  1  0.99999749  0.50000216  0.50000657  1
  Tl  Tl34  1  0.00000313  0.00000306  0.50000592  1
  Tl  Tl35  1  0.49999749  0.50000307  0.00000700  1
  I  I36  1  0.47291739  0.22523242  0.94534430  1
  I  I37  1  0.21694296  0.99851255  0.15927345  1
  I  I38  1  0.65407745  0.01480770  0.28853105  1
  I  I39  1  0.97225417  0.27480406  0.55514877  1
  I  I40  1  0.34592852  0.98519781  0.71148359  1
  I  I41  1  0.78306451  0.00149011  0.84073985  1
  I  I42  1  0.52709160  0.77477258  0.05467082  1
  I  I43  1  0.71718738  0.50133561  0.34027207  1
  I  I44  1  0.15450886  0.48528827  0.21167407  1
  I  I45  1  0.02773941  0.72520050  0.44486441  1
  I  I46  1  0.28280769  0.49866749  0.65974095  1
  I  I47  1  0.84548653  0.51471605  0.78833907  1
