# generated using pymatgen
data_CsNCl3
_symmetry_space_group_name_H-M   'P 1'
_cell_length_a   7.61652355
_cell_length_b   9.75470670
_cell_length_c   7.56205490
_cell_angle_alpha   89.98852420
_cell_angle_beta   96.92123971
_cell_angle_gamma   90.00170375
_symmetry_Int_Tables_number   1
_chemical_formula_structural   CsNCl3
_chemical_formula_sum   'Cs4 N4 Cl12'
_cell_volume   557.74337071
_cell_formula_units_Z   4
loop_
 _symmetry_equiv_pos_site_id
 _symmetry_equiv_pos_as_xyz
  1  'x, y, z'
loop_
 _atom_site_type_symbol
 _atom_site_label
 _atom_site_symmetry_multiplicity
 _atom_site_fract_x
 _atom_site_fract_y
 _atom_site_fract_z
 _atom_site_occupancy
  Cs  Cs0  1  0.53094659  0.22827664  0.53531009  1
  Cs  Cs1  1  0.97944504  0.26907285  0.98100064  1
  Cs  Cs2  1  0.52034686  0.76909905  0.51901430  1
  Cs  Cs3  1  0.96944053  0.72819050  0.96480560  1
  N  N4  1  0.40079648  0.97023078  0.01524939  1
  N  N5  1  0.09919230  0.46989370  0.48469923  1
  N  N6  1  0.01989505  0.96428279  0.40560755  1
  N  N7  1  0.47997072  0.46419323  0.09425120  1
  Cl  Cl8  1  0.48853350  0.28760823  0.04209310  1
  Cl  Cl9  1  0.21467914  0.97349459  0.21539834  1
  Cl  Cl10  1  0.81882546  0.00407847  0.27231321  1
  Cl  Cl11  1  0.03642712  0.29558408  0.48948787  1
  Cl  Cl12  1  0.26418674  0.00319846  0.81274263  1
  Cl  Cl13  1  0.77158221  0.00391253  0.76858446  1
  Cl  Cl14  1  0.46367717  0.79597679  0.01059047  1
  Cl  Cl15  1  0.68095937  0.50420659  0.22746231  1
  Cl  Cl16  1  0.28514307  0.47328383  0.28462127  1
  Cl  Cl17  1  0.01148403  0.78768283  0.45800801  1
  Cl  Cl18  1  0.23583903  0.50286947  0.68720670  1
  Cl  Cl19  1  0.72857494  0.50408892  0.73134245  1
