# generated using pymatgen
data_CsMgCl3
_symmetry_space_group_name_H-M   'P 1'
_cell_length_a   7.18422171
_cell_length_b   10.16094678
_cell_length_c   7.18423392
_cell_angle_alpha   90.00000656
_cell_angle_beta   89.99998103
_cell_angle_gamma   89.99999337
_symmetry_Int_Tables_number   1
_chemical_formula_structural   CsMgCl3
_chemical_formula_sum   'Cs4 Mg4 Cl12'
_cell_volume   524.43826027
_cell_formula_units_Z   4
loop_
 _symmetry_equiv_pos_site_id
 _symmetry_equiv_pos_as_xyz
  1  'x, y, z'
loop_
 _atom_site_type_symbol
 _atom_site_label
 _atom_site_symmetry_multiplicity
 _atom_site_fract_x
 _atom_site_fract_y
 _atom_site_fract_z
 _atom_site_occupancy
  Cs  Cs0  1  0.49975524  0.24966024  0.49976277  1
  Cs  Cs1  1  0.99975052  0.25025741  0.00022222  1
  Cs  Cs2  1  0.50023886  0.74965926  0.50021778  1
  Cs  Cs3  1  0.00024513  0.75025633  0.99975880  1
  Mg  Mg4  1  0.50000302  0.99996315  0.99974630  1
  Mg  Mg5  1  0.99999696  0.49996637  0.50022650  1
  Mg  Mg6  1  0.99999671  0.99996635  0.49974630  1
  Mg  Mg7  1  0.49999074  0.49996309  0.00022634  1
  Cl  Cl8  1  0.49978964  0.24996135  0.99930969  1
  Cl  Cl9  1  0.24973693  0.00022516  0.24965904  1
  Cl  Cl10  1  0.74965913  0.00017212  0.25024977  1
  Cl  Cl11  1  0.99980147  0.24996497  0.50067174  1
  Cl  Cl12  1  0.25025302  0.99969121  0.74966185  1
  Cl  Cl13  1  0.75033016  0.99975126  0.75024616  1
  Cl  Cl14  1  0.50020441  0.74996091  0.00066840  1
  Cl  Cl15  1  0.74973417  0.49969319  0.25032428  1
  Cl  Cl16  1  0.24966038  0.49975203  0.24973114  1
  Cl  Cl17  1  0.00019325  0.74996482  0.49930556  1
  Cl  Cl18  1  0.25034008  0.50017215  0.74972675  1
  Cl  Cl19  1  0.75026554  0.50022297  0.75032743  1
