# generated using pymatgen
data_CsGeCl3
_symmetry_space_group_name_H-M   'P 1'
_cell_length_a   7.47871858
_cell_length_b   10.57266917
_cell_length_c   7.47872731
_cell_angle_alpha   89.99999905
_cell_angle_beta   90.00001183
_cell_angle_gamma   89.99999971
_symmetry_Int_Tables_number   1
_chemical_formula_structural   CsGeCl3
_chemical_formula_sum   'Cs4 Ge4 Cl12'
_cell_volume   591.34309876
_cell_formula_units_Z   4
loop_
 _symmetry_equiv_pos_site_id
 _symmetry_equiv_pos_as_xyz
  1  'x, y, z'
loop_
 _atom_site_type_symbol
 _atom_site_label
 _atom_site_symmetry_multiplicity
 _atom_site_fract_x
 _atom_site_fract_y
 _atom_site_fract_z
 _atom_site_occupancy
  Cs  Cs0  1  0.49984834  0.24986293  0.49983598  1
  Cs  Cs1  1  0.99984628  0.25005410  0.00014495  1
  Cs  Cs2  1  0.50014609  0.74986272  0.50014380  1
  Cs  Cs3  1  0.00014836  0.75005383  0.99983422  1
  Ge  Ge4  1  0.50000476  0.99998024  0.99957786  1
  Ge  Ge5  1  0.99998978  0.49997828  0.50037985  1
  Ge  Ge6  1  0.00000364  0.99997820  0.49957793  1
  Ge  Ge7  1  0.49998871  0.49998033  0.00038011  1
  Cl  Cl8  1  0.49984736  0.24994484  0.99952932  1
  Cl  Cl9  1  0.24963819  0.00012551  0.24983051  1
  Cl  Cl10  1  0.74985889  0.00010036  0.25031774  1
  Cl  Cl11  1  0.99985560  0.24995251  0.50045263  1
  Cl  Cl12  1  0.25034959  0.99979163  0.74982655  1
  Cl  Cl13  1  0.75013005  0.99982145  0.75032219  1
  Cl  Cl14  1  0.50014706  0.74994462  0.00045030  1
  Cl  Cl15  1  0.74964833  0.49979305  0.25016669  1
  Cl  Cl16  1  0.24985418  0.49982199  0.24966228  1
  Cl  Cl17  1  0.00013898  0.74995260  0.49952639  1
  Cl  Cl18  1  0.25014748  0.50010045  0.74966759  1
  Cl  Cl19  1  0.75035372  0.50012470  0.75016192  1
