# generated using pymatgen
data_CsPbCl3
_symmetry_space_group_name_H-M   'P 1'
_cell_length_a   7.97715224
_cell_length_b   11.28495769
_cell_length_c   7.97718068
_cell_angle_alpha   90.00000406
_cell_angle_beta   90.00000093
_cell_angle_gamma   89.99998404
_symmetry_Int_Tables_number   1
_chemical_formula_structural   CsPbCl3
_chemical_formula_sum   'Cs4 Pb4 Cl12'
_cell_volume   718.12036722
_cell_formula_units_Z   4
loop_
 _symmetry_equiv_pos_site_id
 _symmetry_equiv_pos_as_xyz
  1  'x, y, z'
loop_
 _atom_site_type_symbol
 _atom_site_label
 _atom_site_symmetry_multiplicity
 _atom_site_fract_x
 _atom_site_fract_y
 _atom_site_fract_z
 _atom_site_occupancy
  Cs  Cs0  1  0.49973441  0.24966334  0.49975124  1
  Cs  Cs1  1  0.99972907  0.25025536  0.00023498  1
  Cs  Cs2  1  0.50025975  0.74966224  0.50022985  1
  Cs  Cs3  1  0.00026646  0.75025428  0.99974613  1
  Pb  Pb4  1  0.49999893  0.99995633  0.99979794  1
  Pb  Pb5  1  0.99999613  0.49996630  0.50018059  1
  Pb  Pb6  1  0.99999814  0.99996650  0.49979775  1
  Pb  Pb7  1  0.49999567  0.49995615  0.00018065  1
  Cl  Cl8  1  0.49974982  0.24995835  0.99916211  1
  Cl  Cl9  1  0.24965838  0.00032145  0.24945854  1
  Cl  Cl10  1  0.74944571  0.00024762  0.25035177  1
  Cl  Cl11  1  0.99976547  0.24996747  0.50081801  1
  Cl  Cl12  1  0.25033355  0.99959704  0.74946438  1
  Cl  Cl13  1  0.75054924  0.99968066  0.75034984  1
  Cl  Cl14  1  0.50024421  0.74995800  0.00081347  1
  Cl  Cl15  1  0.74965077  0.49959974  0.25052397  1
  Cl  Cl16  1  0.24943885  0.49968142  0.24962185  1
  Cl  Cl17  1  0.00022897  0.74996750  0.49915640  1
  Cl  Cl18  1  0.25055516  0.50024674  0.74961961  1
  Cl  Cl19  1  0.75034667  0.50031785  0.75052974  1
