# generated using pymatgen
data_AgH12RhC2(I3N)2
_symmetry_space_group_name_H-M   'P 1'
_cell_length_a   7.98629360
_cell_length_b   11.86789770
_cell_length_c   7.96946160
_cell_angle_alpha   87.36106710
_cell_angle_beta   90.03044136
_cell_angle_gamma   90.03717551
_symmetry_Int_Tables_number   1
_chemical_formula_structural   AgH12RhC2(I3N)2
_chemical_formula_sum   'Ag2 H24 Rh2 C4 I12 N4'
_cell_volume   754.54838777
_cell_formula_units_Z   2
loop_
 _symmetry_equiv_pos_site_id
 _symmetry_equiv_pos_as_xyz
  1  'x, y, z'
loop_
 _atom_site_type_symbol
 _atom_site_label
 _atom_site_symmetry_multiplicity
 _atom_site_fract_x
 _atom_site_fract_y
 _atom_site_fract_z
 _atom_site_occupancy
  C  C0  1  0.39533735  0.24929494  0.41130131  1
  C  C1  1  0.89655640  0.25082230  0.08958640  1
  C  C2  1  0.60465881  0.75070903  0.58871212  1
  C  C3  1  0.10345064  0.74918001  0.91042460  1
  N  N4  1  0.54284041  0.24780314  0.52266613  1
  N  N5  1  0.04335605  0.25221801  0.97745811  1
  N  N6  1  0.45715454  0.75220144  0.47734885  1
  N  N7  1  0.95665144  0.74778074  0.02255351  1
  H  H8  1  0.43792355  0.25246109  0.28081872  1
  H  H9  1  0.32187377  0.17293695  0.43785902  1
  H  H10  1  0.32107268  0.32392633  0.43523289  1
  H  H11  1  0.61726654  0.17832490  0.50149535  1
  H  H12  1  0.61547869  0.31941044  0.49877896  1
  H  H13  1  0.51012091  0.24455928  0.65011639  1
  H  H14  1  0.93999841  0.24771582  0.21983307  1
  H  H15  1  0.82192083  0.17618029  0.06620467  1
  H  H16  1  0.82313976  0.32718648  0.06338675  1
  H  H17  1  0.11590735  0.18059981  0.00103294  1
  H  H18  1  0.11810511  0.32169113  0.99818358  1
  H  H19  1  0.00986094  0.25544111  0.85016708  1
  H  H20  1  0.56207405  0.74754297  0.71919531  1
  H  H21  1  0.67892233  0.67607720  0.56477932  1
  H  H22  1  0.67812286  0.82706656  0.56215390  1
  H  H23  1  0.38272929  0.82168020  0.49852039  1
  H  H24  1  0.38451613  0.68059446  0.50123543  1
  H  H25  1  0.48987384  0.75544569  0.34989840  1
  H  H26  1  0.06000824  0.75228792  0.78017800  1
  H  H27  1  0.17808463  0.82382227  0.93380892  1
  H  H28  1  0.17686888  0.67281618  0.93662145  1
  H  H29  1  0.88409677  0.81939751  0.99898003  1
  H  H30  1  0.88190584  0.67830597  0.00182799  1
  H  H31  1  0.99014704  0.74455802  0.14984449  1
  Rh  Rh32  1  0.50000047  0.00000133  0.00000796  1
  Rh  Rh33  1  0.99999584  0.50000257  0.50000335  1
  Ag  Ag34  1  0.00000142  0.00000113  0.50001736  1
  Ag  Ag35  1  0.49999908  0.50001806  0.99998604  1
  I  I36  1  0.47461937  0.22848534  0.95051747  1
  I  I37  1  0.20437807  0.99839195  0.17979084  1
  I  I38  1  0.67702633  0.00918783  0.29763580  1
  I  I39  1  0.97383080  0.27156446  0.55000576  1
  I  I40  1  0.32297743  0.99081645  0.70237894  1
  I  I41  1  0.79562588  0.00160921  0.82022835  1
  I  I42  1  0.52538726  0.77151591  0.04950049  1
  I  I43  1  0.70433953  0.50149320  0.31994466  1
  I  I44  1  0.17712339  0.49091408  0.20255873  1
  I  I45  1  0.02616263  0.72844048  0.45000521  1
  I  I46  1  0.29565658  0.49850892  0.68005941  1
  I  I47  1  0.82287557  0.50908917  0.79745217  1
