# generated using pymatgen
data_Cs2BePbCl6
_symmetry_space_group_name_H-M   'P 1'
_cell_length_a   7.55691564
_cell_length_b   10.98966613
_cell_length_c   7.82054028
_cell_angle_alpha   90.00486511
_cell_angle_beta   90.00031703
_cell_angle_gamma   89.99929329
_symmetry_Int_Tables_number   1
_chemical_formula_structural   Cs2BePbCl6
_chemical_formula_sum   'Cs4 Be2 Pb2 Cl12'
_cell_volume   649.48006942
_cell_formula_units_Z   2
loop_
 _symmetry_equiv_pos_site_id
 _symmetry_equiv_pos_as_xyz
  1  'x, y, z'
loop_
 _atom_site_type_symbol
 _atom_site_label
 _atom_site_symmetry_multiplicity
 _atom_site_fract_x
 _atom_site_fract_y
 _atom_site_fract_z
 _atom_site_occupancy
  Cs  Cs0  1  0.49995566  0.25630827  0.45884758  1
  Cs  Cs1  1  0.99999377  0.24666149  0.01268198  1
  Cs  Cs2  1  0.50000268  0.74669181  0.48727065  1
  Cs  Cs3  1  0.99995713  0.75625859  0.04114370  1
  Be  Be4  1  0.50006658  0.05460746  0.87220913  1
  Be  Be5  1  0.00008496  0.55472233  0.62768111  1
  Pb  Pb6  1  0.99997140  0.00834389  0.49313962  1
  Pb  Pb7  1  0.49998272  0.50830978  0.00686564  1
  Cl  Cl8  1  0.50001545  0.21554098  0.97100543  1
  Cl  Cl9  1  0.25508632  0.99552617  0.25952030  1
  Cl  Cl10  1  0.74467531  0.99549901  0.25971409  1
  Cl  Cl11  1  0.99993303  0.24706925  0.49613803  1
  Cl  Cl12  1  0.27969334  0.98998487  0.78921295  1
  Cl  Cl13  1  0.72051921  0.98996181  0.78943744  1
  Cl  Cl14  1  0.49993921  0.74703406  0.00418246  1
  Cl  Cl15  1  0.75510992  0.49540788  0.24045658  1
  Cl  Cl16  1  0.24467346  0.49537980  0.24025492  1
  Cl  Cl17  1  0.00004254  0.71558067  0.52868361  1
  Cl  Cl18  1  0.22053307  0.49014713  0.71055490  1
  Cl  Cl19  1  0.77970962  0.49018908  0.71078869  1
