# generated using pymatgen
data_Cs2BeCdCl6
_symmetry_space_group_name_H-M   'P 1'
_cell_length_a   7.21308127
_cell_length_b   11.00963526
_cell_length_c   7.51421250
_cell_angle_alpha   90.00002994
_cell_angle_beta   90.00650800
_cell_angle_gamma   89.99885549
_symmetry_Int_Tables_number   1
_chemical_formula_structural   Cs2BeCdCl6
_chemical_formula_sum   'Cs4 Be2 Cd2 Cl12'
_cell_volume   596.72911346
_cell_formula_units_Z   2
loop_
 _symmetry_equiv_pos_site_id
 _symmetry_equiv_pos_as_xyz
  1  'x, y, z'
loop_
 _atom_site_type_symbol
 _atom_site_label
 _atom_site_symmetry_multiplicity
 _atom_site_fract_x
 _atom_site_fract_y
 _atom_site_fract_z
 _atom_site_occupancy
  Cs  Cs0  1  0.49999028  0.25638456  0.45117778  1
  Cs  Cs1  1  0.00000754  0.24123921  0.00675154  1
  Cs  Cs2  1  0.50001004  0.74123700  0.49322299  1
  Cs  Cs3  1  0.99997317  0.75638629  0.04881083  1
  Be  Be4  1  0.50001808  0.05934809  0.84706216  1
  Be  Be5  1  0.00002884  0.55935171  0.65291870  1
  Cd  Cd6  1  0.99998946  0.03046576  0.47151097  1
  Cd  Cd7  1  0.49993812  0.53046398  0.02846576  1
  Cl  Cl8  1  0.50002334  0.21929468  0.95236028  1
  Cl  Cl9  1  0.26112664  0.98030081  0.27363399  1
  Cl  Cl10  1  0.73882003  0.98029895  0.27362457  1
  Cl  Cl11  1  0.99998381  0.24905109  0.52632570  1
  Cl  Cl12  1  0.26520182  0.99161824  0.76932260  1
  Cl  Cl13  1  0.73481805  0.99161025  0.76931972  1
  Cl  Cl14  1  0.49997664  0.74904814  0.97364624  1
  Cl  Cl15  1  0.76111535  0.48029114  0.22634209  1
  Cl  Cl16  1  0.23881179  0.48030357  0.22635527  1
  Cl  Cl17  1  0.00002896  0.71930082  0.54762922  1
  Cl  Cl18  1  0.23484990  0.49159967  0.73064968  1
  Cl  Cl19  1  0.76523351  0.49163038  0.73065874  1
