# generated using pymatgen
data_HgH12PdC2(I3N)2
_symmetry_space_group_name_H-M   'P 1'
_cell_length_a   8.18998526
_cell_length_b   11.90583627
_cell_length_c   8.57621201
_cell_angle_alpha   86.87087946
_cell_angle_beta   90.01071471
_cell_angle_gamma   90.01560900
_symmetry_Int_Tables_number   1
_chemical_formula_structural   HgH12PdC2(I3N)2
_chemical_formula_sum   'Hg2 H24 Pd2 C4 I12 N4'
_cell_volume   835.00777588
_cell_formula_units_Z   2
loop_
 _symmetry_equiv_pos_site_id
 _symmetry_equiv_pos_as_xyz
  1  'x, y, z'
loop_
 _atom_site_type_symbol
 _atom_site_label
 _atom_site_symmetry_multiplicity
 _atom_site_fract_x
 _atom_site_fract_y
 _atom_site_fract_z
 _atom_site_occupancy
  C  C0  1  0.41287024  0.24675700  0.41645667  1
  C  C1  1  0.91367984  0.25329293  0.08387509  1
  C  C2  1  0.58712675  0.75324680  0.58355547  1
  C  C3  1  0.08632549  0.74671082  0.91613618  1
  N  N4  1  0.55308474  0.24511218  0.52602229  1
  N  N5  1  0.05349781  0.25487179  0.97390226  1
  N  N6  1  0.44691222  0.75489301  0.47399011  1
  N  N7  1  0.94650711  0.74512814  0.02610886  1
  H  H8  1  0.45930832  0.25156440  0.29646314  1
  H  H9  1  0.34161907  0.16976295  0.43776263  1
  H  H10  1  0.33802685  0.32044664  0.43732111  1
  H  H11  1  0.62808925  0.17654595  0.50921843  1
  H  H12  1  0.62410347  0.31709794  0.50534763  1
  H  H13  1  0.51731207  0.24128553  0.64319315  1
  H  H14  1  0.96058123  0.24850328  0.20371919  1
  H  H15  1  0.83866143  0.17961783  0.06328669  1
  H  H16  1  0.84247933  0.33029515  0.06275864  1
  H  H17  1  0.12447299  0.18287236  0.99440597  1
  H  H18  1  0.12865514  0.32342954  0.99044098  1
  H  H19  1  0.01729419  0.25867873  0.85681520  1
  H  H20  1  0.54069055  0.74843890  0.70354961  1
  H  H21  1  0.66197017  0.67955663  0.56268928  1
  H  H22  1  0.65837950  0.83024124  0.56224959  1
  H  H23  1  0.37190862  0.82345952  0.49079602  1
  H  H24  1  0.37589243  0.68290760  0.49466583  1
  H  H25  1  0.48268316  0.75871968  0.35682038  1
  H  H26  1  0.03942383  0.75150119  0.79629218  1
  H  H27  1  0.16134084  0.82038674  0.93672643  1
  H  H28  1  0.15752834  0.66970983  0.93725066  1
  H  H29  1  0.87552887  0.81712616  0.00560684  1
  H  H30  1  0.87135288  0.67656890  0.00956919  1
  H  H31  1  0.98271088  0.74132104  0.14319650  1
  Pd  Pd32  1  0.50000160  0.00000143  0.00000714  1
  Pd  Pd33  1  0.99999946  0.50000176  0.50000598  1
  Hg  Hg34  1  0.00000011  0.00000196  0.50000761  1
  Hg  Hg35  1  0.49999980  0.50000225  0.00000580  1
  I  I36  1  0.48258024  0.22119068  0.93964126  1
  I  I37  1  0.22290828  0.00414320  0.16309088  1
  I  I38  1  0.72762188  0.01153472  0.32278828  1
  I  I39  1  0.98208167  0.27883976  0.56057345  1
  I  I40  1  0.27237919  0.98847034  0.67722591  1
  I  I41  1  0.77709497  0.99585890  0.83692376  1
  I  I42  1  0.51742433  0.77881241  0.06037383  1
  I  I43  1  0.72287797  0.49583304  0.33687294  1
  I  I44  1  0.22766040  0.48854828  0.17714466  1
  I  I45  1  0.01791613  0.72116389  0.43943886  1
  I  I46  1  0.27712156  0.50416997  0.66313816  1
  I  I47  1  0.77233853  0.51145528  0.82286584  1
