# generated using pymatgen
data_Cs2BeGeCl6
_symmetry_space_group_name_H-M   'P 1'
_cell_length_a   7.41802309
_cell_length_b   10.77719469
_cell_length_c   7.75178320
_cell_angle_alpha   89.99979630
_cell_angle_beta   90.00011215
_cell_angle_gamma   90.00007834
_symmetry_Int_Tables_number   1
_chemical_formula_structural   Cs2BeGeCl6
_chemical_formula_sum   'Cs4 Be2 Ge2 Cl12'
_cell_volume   619.72002140
_cell_formula_units_Z   2
loop_
 _symmetry_equiv_pos_site_id
 _symmetry_equiv_pos_as_xyz
  1  'x, y, z'
loop_
 _atom_site_type_symbol
 _atom_site_label
 _atom_site_symmetry_multiplicity
 _atom_site_fract_x
 _atom_site_fract_y
 _atom_site_fract_z
 _atom_site_occupancy
  Cs  Cs0  1  0.49997300  0.25523943  0.46860223  1
  Cs  Cs1  1  0.99999373  0.24747098  0.99371677  1
  Cs  Cs2  1  0.50001208  0.74746437  0.50627761  1
  Cs  Cs3  1  0.99998686  0.75525033  0.03135845  1
  Be  Be4  1  0.50001816  0.05638316  0.86786884  1
  Be  Be5  1  0.00004120  0.55637354  0.63209690  1
  Ge  Ge6  1  0.99997588  0.01448573  0.47125681  1
  Ge  Ge7  1  0.49999163  0.51449902  0.02872898  1
  Cl  Cl8  1  0.49999823  0.21603814  0.97850920  1
  Cl  Cl9  1  0.23898034  0.99716932  0.26598899  1
  Cl  Cl10  1  0.76091374  0.99715397  0.26605444  1
  Cl  Cl11  1  0.99996253  0.23444276  0.47801130  1
  Cl  Cl12  1  0.27622213  0.99061875  0.78302424  1
  Cl  Cl13  1  0.72384113  0.99061483  0.78309628  1
  Cl  Cl14  1  0.49998380  0.73445744  0.02201242  1
  Cl  Cl15  1  0.73899335  0.49716067  0.23399543  1
  Cl  Cl16  1  0.26092598  0.49715134  0.23392313  1
  Cl  Cl17  1  0.00003308  0.71602070  0.52143176  1
  Cl  Cl18  1  0.22385907  0.49060374  0.71688027  1
  Cl  Cl19  1  0.77623945  0.49062612  0.71695477  1
