# generated using pymatgen
data_Cs2BeZnCl6
_symmetry_space_group_name_H-M   'P 1'
_cell_length_a   7.28825954
_cell_length_b   10.76171651
_cell_length_c   7.71177049
_cell_angle_alpha   89.99741410
_cell_angle_beta   90.00727593
_cell_angle_gamma   89.99619896
_symmetry_Int_Tables_number   1
_chemical_formula_structural   Cs2BeZnCl6
_chemical_formula_sum   'Cs4 Be2 Zn2 Cl12'
_cell_volume   604.86641114
_cell_formula_units_Z   2
loop_
 _symmetry_equiv_pos_site_id
 _symmetry_equiv_pos_as_xyz
  1  'x, y, z'
loop_
 _atom_site_type_symbol
 _atom_site_label
 _atom_site_symmetry_multiplicity
 _atom_site_fract_x
 _atom_site_fract_y
 _atom_site_fract_z
 _atom_site_occupancy
  Cs  Cs0  1  0.49995968  0.25084572  0.46831065  1
  Cs  Cs1  1  0.00001644  0.24805415  0.97163212  1
  Cs  Cs2  1  0.50001469  0.74810754  0.52830413  1
  Cs  Cs3  1  0.99995453  0.75082810  0.03170705  1
  Be  Be4  1  0.50003173  0.05952809  0.86114594  1
  Be  Be5  1  0.00008575  0.55963525  0.63873940  1
  Zn  Zn6  1  0.99993340  0.04534514  0.39195850  1
  Zn  Zn7  1  0.49995784  0.54528675  0.10815984  1
  Cl  Cl8  1  0.50002355  0.21986313  0.97299241  1
  Cl  Cl9  1  0.25662781  0.97817226  0.27593738  1
  Cl  Cl10  1  0.74316975  0.97806082  0.27619575  1
  Cl  Cl11  1  0.99994074  0.23283907  0.50329811  1
  Cl  Cl12  1  0.27082702  0.99343726  0.77739955  1
  Cl  Cl13  1  0.72927296  0.99339557  0.77757989  1
  Cl  Cl14  1  0.49994654  0.73283491  0.99697642  1
  Cl  Cl15  1  0.75671718  0.47797967  0.22394130  1
  Cl  Cl16  1  0.24320203  0.47797034  0.22384794  1
  Cl  Cl17  1  0.00007884  0.71991385  0.52671057  1
  Cl  Cl18  1  0.22930878  0.49352671  0.72244450  1
  Cl  Cl19  1  0.77087610  0.49360000  0.72250736  1
