# generated using pymatgen
data_Cs2CaBeCl6
_symmetry_space_group_name_H-M   'P 1'
_cell_length_a   7.54474902
_cell_length_b   8.98024602
_cell_length_c   8.61282680
_cell_angle_alpha   89.99271531
_cell_angle_beta   90.00001288
_cell_angle_gamma   89.99988270
_symmetry_Int_Tables_number   1
_chemical_formula_structural   Cs2CaBeCl6
_chemical_formula_sum   'Cs4 Ca2 Be2 Cl12'
_cell_volume   583.55089904
_cell_formula_units_Z   2
loop_
 _symmetry_equiv_pos_site_id
 _symmetry_equiv_pos_as_xyz
  1  'x, y, z'
loop_
 _atom_site_type_symbol
 _atom_site_label
 _atom_site_symmetry_multiplicity
 _atom_site_fract_x
 _atom_site_fract_y
 _atom_site_fract_z
 _atom_site_occupancy
  Cs  Cs0  1  0.49999692  0.27055481  0.46326458  1
  Cs  Cs1  1  0.00000093  0.22936068  0.03677857  1
  Cs  Cs2  1  0.50000085  0.72937064  0.46305341  1
  Cs  Cs3  1  0.99999662  0.77054592  0.03686113  1
  Be  Be4  1  0.49999571  0.99991381  0.86883127  1
  Be  Be5  1  0.99999659  0.50001254  0.63114897  1
  Ca  Ca6  1  0.99999667  -0.00000299  0.51386707  1
  Ca  Ca7  1  0.49999633  0.49999767  0.98611209  1
  Cl  Cl8  1  0.49999511  0.18931148  0.99337728  1
  Cl  Cl9  1  0.24205393  0.00004042  0.29618085  1
  Cl  Cl10  1  0.75794217  0.00004316  0.29617786  1
  Cl  Cl11  1  -0.00000001  0.31065379  0.50654541  1
  Cl  Cl12  1  0.27098387  0.99980404  0.73681964  1
  Cl  Cl13  1  0.72900834  0.99980323  0.73681899  1
  Cl  Cl14  1  0.49999647  0.81064594  0.99363441  1
  Cl  Cl15  1  0.74205728  0.49991523  0.20379762  1
  Cl  Cl16  1  0.25794065  0.49991742  0.20380097  1
  Cl  Cl17  1  0.99999723  0.68931762  0.50640181  1
  Cl  Cl18  1  0.22900702  0.50001098  0.76316129  1
  Cl  Cl19  1  0.77098270  0.50000794  0.76315560  1
