# generated using pymatgen
data_Cs2BeSiCl6
_symmetry_space_group_name_H-M   'P 1'
_cell_length_a   7.40122916
_cell_length_b   10.73080244
_cell_length_c   7.79123929
_cell_angle_alpha   89.99958892
_cell_angle_beta   90.00037969
_cell_angle_gamma   90.00116982
_symmetry_Int_Tables_number   1
_chemical_formula_structural   Cs2BeSiCl6
_chemical_formula_sum   'Cs4 Be2 Si2 Cl12'
_cell_volume   618.78901154
_cell_formula_units_Z   2
loop_
 _symmetry_equiv_pos_site_id
 _symmetry_equiv_pos_as_xyz
  1  'x, y, z'
loop_
 _atom_site_type_symbol
 _atom_site_label
 _atom_site_symmetry_multiplicity
 _atom_site_fract_x
 _atom_site_fract_y
 _atom_site_fract_z
 _atom_site_occupancy
  Cs  Cs0  1  0.49997693  0.25486880  0.47661318  1
  Cs  Cs1  1  0.99999750  0.24976626  0.98253873  1
  Cs  Cs2  1  0.50001501  0.74976802  0.51744829  1
  Cs  Cs3  1  0.99999010  0.75486326  0.02336161  1
  Be  Be4  1  0.50001504  0.05417267  0.87713371  1
  Be  Be5  1  0.00004011  0.55417393  0.62282579  1
  Si  Si6  1  0.99997101  0.01955787  0.46153549  1
  Si  Si7  1  0.49999500  0.51957030  0.03844875  1
  Cl  Cl8  1  0.50000430  0.21336886  0.98930644  1
  Cl  Cl9  1  0.22838737  0.00020129  0.27050540  1
  Cl  Cl10  1  0.77150776  0.00017924  0.27055753  1
  Cl  Cl11  1  0.99995760  0.22990299  0.46513686  1
  Cl  Cl12  1  0.27631295  0.98880170  0.79103876  1
  Cl  Cl13  1  0.72373292  0.98879548  0.79109729  1
  Cl  Cl14  1  0.49998096  0.72991706  0.03491670  1
  Cl  Cl15  1  0.72840703  0.50017830  0.22947886  1
  Cl  Cl16  1  0.27152677  0.50015845  0.22940934  1
  Cl  Cl17  1  0.00004033  0.71335443  0.51060899  1
  Cl  Cl18  1  0.22375226  0.48880109  0.70888459  1
  Cl  Cl19  1  0.77633441  0.48882433  0.70894250  1
