# generated using pymatgen
data_Cs2MgBeCl6
_symmetry_space_group_name_H-M   'P 1'
_cell_length_a   7.01464688
_cell_length_b   11.08674874
_cell_length_c   7.42743147
_cell_angle_alpha   89.99929525
_cell_angle_beta   90.04856319
_cell_angle_gamma   89.99935018
_symmetry_Int_Tables_number   1
_chemical_formula_structural   Cs2MgBeCl6
_chemical_formula_sum   'Cs4 Mg2 Be2 Cl12'
_cell_volume   577.62837119
_cell_formula_units_Z   2
loop_
 _symmetry_equiv_pos_site_id
 _symmetry_equiv_pos_as_xyz
  1  'x, y, z'
loop_
 _atom_site_type_symbol
 _atom_site_label
 _atom_site_symmetry_multiplicity
 _atom_site_fract_x
 _atom_site_fract_y
 _atom_site_fract_z
 _atom_site_occupancy
  Cs  Cs0  1  0.50006788  0.26144305  0.43735511  1
  Cs  Cs1  1  0.00000185  0.24116632  0.02039204  1
  Cs  Cs2  1  0.50004853  0.74119612  0.47958955  1
  Cs  Cs3  1  0.99988365  0.76141345  0.06265671  1
  Be  Be4  1  0.49993807  0.05703807  0.83761882  1
  Be  Be5  1  0.00012104  0.55704405  0.66236535  1
  Mg  Mg6  1  0.00017791  0.03328158  0.49022937  1
  Mg  Mg7  1  0.49968417  0.53328071  0.00973611  1
  Cl  Cl8  1  0.49998702  0.21707125  0.93798632  1
  Cl  Cl9  1  0.24960475  0.98828918  0.29430678  1
  Cl  Cl10  1  0.75045066  0.98822348  0.29430876  1
  Cl  Cl11  1  0.00005042  0.23922041  0.53158950  1
  Cl  Cl12  1  0.25658072  0.98691497  0.76920501  1
  Cl  Cl13  1  0.74313145  0.98695962  0.76916117  1
  Cl  Cl14  1  0.49988715  0.73921984  0.96837582  1
  Cl  Cl15  1  0.74948590  0.48818909  0.20554610  1
  Cl  Cl16  1  0.25033264  0.48831226  0.20576666  1
  Cl  Cl17  1  0.00013777  0.71708419  0.56201596  1
  Cl  Cl18  1  0.24346123  0.48688927  0.73085012  1
  Cl  Cl19  1  0.75691256  0.48698741  0.73073354  1
