# generated using pymatgen
data_Cs2BeCCl6
_symmetry_space_group_name_H-M   'P 1'
_cell_length_a   7.31230013
_cell_length_b   10.56594439
_cell_length_c   7.80667700
_cell_angle_alpha   89.99925476
_cell_angle_beta   90.00007013
_cell_angle_gamma   90.00011376
_symmetry_Int_Tables_number   1
_chemical_formula_structural   Cs2BeCCl6
_chemical_formula_sum   'Cs4 Be2 C2 Cl12'
_cell_volume   603.15445485
_cell_formula_units_Z   2
loop_
 _symmetry_equiv_pos_site_id
 _symmetry_equiv_pos_as_xyz
  1  'x, y, z'
loop_
 _atom_site_type_symbol
 _atom_site_label
 _atom_site_symmetry_multiplicity
 _atom_site_fract_x
 _atom_site_fract_y
 _atom_site_fract_z
 _atom_site_occupancy
  Cs  Cs0  1  0.49999091  0.24908374  0.52247553  1
  Cs  Cs1  1  0.99999267  0.24724088  0.01704958  1
  Cs  Cs2  1  0.50000074  0.74726439  0.48287828  1
  Cs  Cs3  1  0.00000197  0.74906990  0.97755124  1
  Be  Be4  1  0.50000313  0.94555516  0.87703924  1
  Be  Be5  1  0.99999195  0.44560876  0.62298273  1
  C  C6  1  0.00000226  0.96829758  0.43647642  1
  C  C7  1  0.49999311  0.46826448  0.06348363  1
  Cl  Cl8  1  0.49999115  0.28664083  0.03812989  1
  Cl  Cl9  1  0.20445390  0.99584910  0.28724065  1
  Cl  Cl10  1  0.79555080  0.99584808  0.28723892  1
  Cl  Cl11  1  0.99998918  0.28928337  0.49859709  1
  Cl  Cl12  1  0.27340241  0.01089936  0.78891126  1
  Cl  Cl13  1  0.72659993  0.01089789  0.78890059  1
  Cl  Cl14  1  0.50000422  0.78927993  0.00152985  1
  Cl  Cl15  1  0.70444326  0.49575620  0.21274262  1
  Cl  Cl16  1  0.29554320  0.49575663  0.21274107  1
  Cl  Cl17  1  0.00000215  0.78666258  0.46170123  1
  Cl  Cl18  1  0.22659783  0.51098205  0.71105779  1
  Cl  Cl19  1  0.77339061  0.51098342  0.71106121  1
