# generated using pymatgen
data_Cs2BiBCl6
_symmetry_space_group_name_H-M   'P 1'
_cell_length_a   8.65349640
_cell_length_b   11.14498807
_cell_length_c   6.99151685
_cell_angle_alpha   90.09187339
_cell_angle_beta   90.43607896
_cell_angle_gamma   90.06598304
_symmetry_Int_Tables_number   1
_chemical_formula_structural   Cs2BiBCl6
_chemical_formula_sum   'Cs4 Bi2 B2 Cl12'
_cell_volume   674.26280455
_cell_formula_units_Z   2
loop_
 _symmetry_equiv_pos_site_id
 _symmetry_equiv_pos_as_xyz
  1  'x, y, z'
loop_
 _atom_site_type_symbol
 _atom_site_label
 _atom_site_symmetry_multiplicity
 _atom_site_fract_x
 _atom_site_fract_y
 _atom_site_fract_z
 _atom_site_occupancy
  Cs  Cs0  1  0.55269805  0.26011588  0.45658255  1
  Cs  Cs1  1  0.98979852  0.22098313  0.06225479  1
  Cs  Cs2  1  0.50993378  0.72017534  0.43682950  1
  Cs  Cs3  1  0.94787094  0.76088246  0.04370980  1
  B  B4  1  0.43272807  0.06169024  0.92644652  1
  B  B5  1  0.06696191  0.56166454  0.57376484  1
  Bi  Bi6  1  0.01097876  0.99627175  0.56846822  1
  Bi  Bi7  1  0.48889566  0.49640605  0.93132710  1
  Cl  Cl8  1  0.39121176  0.22924381  0.96127029  1
  Cl  Cl9  1  0.33452235  0.98527328  0.12463851  1
  Cl  Cl10  1  0.74622023  0.96294390  0.38785782  1
  Cl  Cl11  1  0.96874045  0.22744181  0.56578269  1
  Cl  Cl12  1  0.34732591  0.01507215  0.68874834  1
  Cl  Cl13  1  0.64204338  0.04041952  0.91430255  1
  Cl  Cl14  1  0.53297554  0.72749473  0.93319186  1
  Cl  Cl15  1  0.75317673  0.46312058  0.11258131  1
  Cl  Cl16  1  0.16530560  0.48529522  0.37539772  1
  Cl  Cl17  1  0.10807326  0.72927237  0.53902304  1
  Cl  Cl18  1  0.15273048  0.51574816  0.81135507  1
  Cl  Cl19  1  0.85775400  0.53970940  0.58625629  1
