# generated using pymatgen
data_HfH12PdC2(I3N)2
_symmetry_space_group_name_H-M   'P 1'
_cell_length_a   8.26194470
_cell_length_b   11.50611344
_cell_length_c   8.17181301
_cell_angle_alpha   91.67114968
_cell_angle_beta   90.20045939
_cell_angle_gamma   89.95760269
_symmetry_Int_Tables_number   1
_chemical_formula_structural   HfH12PdC2(I3N)2
_chemical_formula_sum   'Hf2 H24 Pd2 C4 I12 N4'
_cell_volume   776.50070031
_cell_formula_units_Z   2
loop_
 _symmetry_equiv_pos_site_id
 _symmetry_equiv_pos_as_xyz
  1  'x, y, z'
loop_
 _atom_site_type_symbol
 _atom_site_label
 _atom_site_symmetry_multiplicity
 _atom_site_fract_x
 _atom_site_fract_y
 _atom_site_fract_z
 _atom_site_occupancy
  C  C0  1  0.42746287  0.25371572  0.42775694  1
  C  C1  1  0.92817461  0.24617137  0.07209444  1
  C  C2  1  0.57257295  0.74626256  0.57228970  1
  C  C3  1  0.07189702  0.75381874  0.92799666  1
  N  N4  1  0.57302834  0.25655045  0.53407816  1
  N  N5  1  0.07312768  0.24329778  0.96594585  1
  N  N6  1  0.42699424  0.74340333  0.46598971  1
  N  N7  1  0.92697424  0.75669847  0.03418773  1
  H  H8  1  0.46620082  0.24788423  0.29987690  1
  H  H9  1  0.35557068  0.17741416  0.45673849  1
  H  H10  1  0.35762625  0.33322454  0.45017540  1
  H  H11  1  0.64391147  0.18328188  0.51044975  1
  H  H12  1  0.64370152  0.32866826  0.51041496  1
  H  H13  1  0.54404648  0.25905980  0.65844536  1
  H  H14  1  0.96764457  0.25217594  0.19999924  1
  H  H15  1  0.85843944  0.16659659  0.04978472  1
  H  H16  1  0.85587900  0.32238536  0.04285531  1
  H  H17  1  0.14408965  0.17120388  0.98966944  1
  H  H18  1  0.14397975  0.31659969  0.98961418  1
  H  H19  1  0.04350510  0.24077619  0.84151808  1
  H  H20  1  0.53383797  0.75210602  0.70016888  1
  H  H21  1  0.64243457  0.66676331  0.54987914  1
  H  H22  1  0.64444362  0.82256980  0.54328900  1
  H  H23  1  0.35609260  0.81666522  0.48962266  1
  H  H24  1  0.35634280  0.67127954  0.48966977  1
  H  H25  1  0.45595232  0.74089468  0.34162059  1
  H  H26  1  0.03239467  0.74781703  0.80009964  1
  H  H27  1  0.14163068  0.83339705  0.95028098  1
  H  H28  1  0.14419656  0.67760335  0.95722157  1
  H  H29  1  0.85600345  0.82878709  0.01047051  1
  H  H30  1  0.85611273  0.68339969  0.01054818  1
  H  H31  1  0.95662544  0.75922978  0.15861148  1
  Pd  Pd32  1  0.50006150  0.00016159  0.99935826  1
  Pd  Pd33  1  0.99815306  0.50010227  0.49873223  1
  Hf  Hf34  1  0.99991243  0.00006436  0.50005810  1
  Hf  Hf35  1  0.50024995  0.50005912  0.99994102  1
  I  I36  1  0.49973828  0.25061832  0.96075983  1
  I  I37  1  0.19602274  0.00901131  0.21231484  1
  I  I38  1  0.70961207  0.00793120  0.30469666  1
  I  I39  1  0.99994699  0.24949731  0.53906940  1
  I  I40  1  0.29038883  0.99201317  0.69535268  1
  I  I41  1  0.80400542  0.99095534  0.78784771  1
  I  I42  1  0.50040261  0.74946490  0.03929169  1
  I  I43  1  0.69687874  0.49040448  0.28874259  1
  I  I44  1  0.21056519  0.49233664  0.19442020  1
  I  I45  1  0.00026623  0.75058718  0.46106758  1
  I  I46  1  0.30309240  0.50951387  0.71155181  1
  I  I47  1  0.78983318  0.50765572  0.80572856  1
