# generated using pymatgen
data_Cs2BRhCl6
_symmetry_space_group_name_H-M   'P 1'
_cell_length_a   7.41207170
_cell_length_b   10.37438862
_cell_length_c   7.48820373
_cell_angle_alpha   88.69126391
_cell_angle_beta   89.58143413
_cell_angle_gamma   91.44022918
_symmetry_Int_Tables_number   1
_chemical_formula_structural   Cs2BRhCl6
_chemical_formula_sum   'Cs4 B2 Rh2 Cl12'
_cell_volume   575.46081076
_cell_formula_units_Z   2
loop_
 _symmetry_equiv_pos_site_id
 _symmetry_equiv_pos_as_xyz
  1  'x, y, z'
loop_
 _atom_site_type_symbol
 _atom_site_label
 _atom_site_symmetry_multiplicity
 _atom_site_fract_x
 _atom_site_fract_y
 _atom_site_fract_z
 _atom_site_occupancy
  Cs  Cs0  1  0.53038937  0.23288006  0.45232681  1
  Cs  Cs1  1  0.97133038  0.25841842  0.02599478  1
  Cs  Cs2  1  0.55080761  0.73694371  0.46823479  1
  Cs  Cs3  1  0.97394796  0.75517509  0.02677557  1
  B  B4  1  0.43103355  0.06568874  0.93126840  1
  B  B5  1  0.06928147  0.56552928  0.56774397  1
  Rh  Rh6  1  0.04016058  0.98363933  0.57551453  1
  Rh  Rh7  1  0.42318711  0.48430102  0.96135510  1
  Cl  Cl8  1  0.46294277  0.25281810  0.89703135  1
  Cl  Cl9  1  0.31125604  0.02567928  0.13984574  1
  Cl  Cl10  1  0.82628145  0.97877043  0.35051420  1
  Cl  Cl11  1  0.02474034  0.20402310  0.56107757  1
  Cl  Cl12  1  0.31411103  0.99065147  0.73035703  1
  Cl  Cl13  1  0.66051019  0.00668381  0.91163441  1
  Cl  Cl14  1  0.44465079  0.70436309  0.97906315  1
  Cl  Cl15  1  0.64348929  0.47508809  0.17908146  1
  Cl  Cl16  1  0.08899680  0.50266381  0.34271267  1
  Cl  Cl17  1  0.09599081  0.75303050  0.52557232  1
  Cl  Cl18  1  0.27634142  0.49828898  0.68452049  1
  Cl  Cl19  1  0.86049641  0.52458803  0.68916448  1
