# generated using pymatgen
data_Cs2SrBCl6
_symmetry_space_group_name_H-M   'P 1'
_cell_length_a   7.89295719
_cell_length_b   11.50848449
_cell_length_c   7.52259640
_cell_angle_alpha   89.57456011
_cell_angle_beta   88.39824248
_cell_angle_gamma   95.15169594
_symmetry_Int_Tables_number   1
_chemical_formula_structural   Cs2SrBCl6
_chemical_formula_sum   'Cs4 Sr2 B2 Cl12'
_cell_volume   680.26226934
_cell_formula_units_Z   2
loop_
 _symmetry_equiv_pos_site_id
 _symmetry_equiv_pos_as_xyz
  1  'x, y, z'
loop_
 _atom_site_type_symbol
 _atom_site_label
 _atom_site_symmetry_multiplicity
 _atom_site_fract_x
 _atom_site_fract_y
 _atom_site_fract_z
 _atom_site_occupancy
  Cs  Cs0  1  0.55414190  0.24022064  0.51539683  1
  Cs  Cs1  1  0.87894175  0.21915659  0.99597434  1
  Cs  Cs2  1  0.55506243  0.76298792  0.50551770  1
  Cs  Cs3  1  0.97432866  0.74402044  0.99459517  1
  B  B4  1  0.45808715  0.07090275  0.98900085  1
  B  B5  1  0.13139051  0.57022741  0.49320786  1
  Sr  Sr6  1  0.06368402  0.02091561  0.49552699  1
  Sr  Sr7  1  0.49559458  0.49931465  0.01082993  1
  Cl  Cl8  1  0.31505583  0.28243861  0.00378729  1
  Cl  Cl9  1  0.33290600  0.00067044  0.20552175  1
  Cl  Cl10  1  0.82169257  0.95324199  0.25198973  1
  Cl  Cl11  1  0.01149464  0.24855163  0.50597262  1
  Cl  Cl12  1  0.31446066  0.99893113  0.78649224  1
  Cl  Cl13  1  0.81282253  0.95127301  0.74433819  1
  Cl  Cl14  1  0.41887717  0.72549532  0.99962506  1
  Cl  Cl15  1  0.72050030  0.50057226  0.27707670  1
  Cl  Cl16  1  0.16814016  0.49937012  0.29517605  1
  Cl  Cl17  1  0.04943811  0.70748790  0.49023596  1
  Cl  Cl18  1  0.18699456  0.51016153  0.69320524  1
  Cl  Cl19  1  0.73633184  0.49328442  0.74631832  1
