# generated using pymatgen
data_CdH12PdC2(I3N)2
_symmetry_space_group_name_H-M   'P 1'
_cell_length_a   8.27711309
_cell_length_b   11.68735651
_cell_length_c   8.55798363
_cell_angle_alpha   87.71043046
_cell_angle_beta   89.98965093
_cell_angle_gamma   90.00471031
_symmetry_Int_Tables_number   1
_chemical_formula_structural   CdH12PdC2(I3N)2
_chemical_formula_sum   'Cd2 H24 Pd2 C4 I12 N4'
_cell_volume   827.21762918
_cell_formula_units_Z   2
loop_
 _symmetry_equiv_pos_site_id
 _symmetry_equiv_pos_as_xyz
  1  'x, y, z'
loop_
 _atom_site_type_symbol
 _atom_site_label
 _atom_site_symmetry_multiplicity
 _atom_site_fract_x
 _atom_site_fract_y
 _atom_site_fract_z
 _atom_site_occupancy
  C  C0  1  0.42419379  0.24504935  0.41921268  1
  C  C1  1  0.92450321  0.25485560  0.08054921  1
  C  C2  1  0.57580127  0.75495747  0.58080082  1
  C  C3  1  0.07549838  0.74515085  0.91945993  1
  N  N4  1  0.56185349  0.24568020  0.53008620  1
  N  N5  1  0.06206433  0.25429928  0.96951129  1
  N  N6  1  0.43815128  0.75432241  0.46991671  1
  N  N7  1  0.93793774  0.74570180  0.03049927  1
  H  H8  1  0.47155595  0.24985713  0.29957620  1
  H  H9  1  0.35586015  0.16576480  0.43918249  1
  H  H10  1  0.34786287  0.31924803  0.43984822  1
  H  H11  1  0.63729102  0.17618990  0.51312936  1
  H  H12  1  0.63100252  0.31925610  0.50984967  1
  H  H13  1  0.52550492  0.24251417  0.64707881  1
  H  H14  1  0.97199722  0.25014246  0.20014060  1
  H  H15  1  0.84827418  0.18056784  0.06008364  1
  H  H16  1  0.85602832  0.33406654  0.06060187  1
  H  H17  1  0.13127986  0.18075531  0.98967946  1
  H  H18  1  0.13745911  0.32381851  0.98636097  1
  H  H19  1  0.02560238  0.25742953  0.85256483  1
  H  H20  1  0.52844321  0.75014567  0.70043234  1
  H  H21  1  0.65213616  0.68075520  0.56015950  1
  H  H22  1  0.64413971  0.83423955  0.56082996  1
  H  H23  1  0.36270747  0.82382109  0.48688183  1
  H  H24  1  0.36899413  0.68075289  0.49015881  1
  H  H25  1  0.47449277  0.75749352  0.35293410  1
  H  H26  1  0.02800527  0.74986298  0.79986967  1
  H  H27  1  0.15172347  0.81944041  0.93992701  1
  H  H28  1  0.14397901  0.66594141  0.93940724  1
  H  H29  1  0.86871676  0.81924520  0.01032964  1
  H  H30  1  0.86254598  0.67618175  0.01364665  1
  H  H31  1  0.97439793  0.74257317  0.14744395  1
  Pd  Pd32  1  0.50000090  1.00000050  0.00001098  1
  Pd  Pd33  1  0.00000274  0.50000105  0.50000748  1
  Cd  Cd34  1  0.00000473  1.00000017  0.49999857  1
  Cd  Cd35  1  0.50002795  0.49997436  0.00004444  1
  I  I36  1  0.48927627  0.22587111  0.94297786  1
  I  I37  1  0.22572751  0.00599442  0.16790117  1
  I  I38  1  0.73141748  0.01205758  0.32014922  1
  I  I39  1  0.98899575  0.27411906  0.55685131  1
  I  I40  1  0.26858102  0.98794883  0.67986334  1
  I  I41  1  0.77426691  0.99400566  0.83211194  1
  I  I42  1  0.51072028  0.77413110  0.05702978  1
  I  I43  1  0.72579675  0.49409319  0.33207679  1
  I  I44  1  0.23134873  0.48790147  0.17980782  1
  I  I45  1  0.01100628  0.72588402  0.44316441  1
  I  I46  1  0.27419621  0.50591169  0.66794288  1
  I  I47  1  0.76865037  0.51210395  0.82020565  1
