# generated using pymatgen
data_Cs2CuBCl6
_symmetry_space_group_name_H-M   'P 1'
_cell_length_a   7.53189718
_cell_length_b   11.29405586
_cell_length_c   7.52986645
_cell_angle_alpha   89.98932401
_cell_angle_beta   81.41304955
_cell_angle_gamma   89.93525921
_symmetry_Int_Tables_number   1
_chemical_formula_structural   Cs2CuBCl6
_chemical_formula_sum   'Cs4 Cu2 B2 Cl12'
_cell_volume   633.35259937
_cell_formula_units_Z   2
loop_
 _symmetry_equiv_pos_site_id
 _symmetry_equiv_pos_as_xyz
  1  'x, y, z'
loop_
 _atom_site_type_symbol
 _atom_site_label
 _atom_site_symmetry_multiplicity
 _atom_site_fract_x
 _atom_site_fract_y
 _atom_site_fract_z
 _atom_site_occupancy
  Cs  Cs0  1  0.50026430  0.23858171  0.47251693  1
  Cs  Cs1  1  0.97186947  0.23901129  0.00038614  1
  Cs  Cs2  1  0.52835758  0.73935352  0.49994505  1
  Cs  Cs3  1  0.99895808  0.73844951  0.02716506  1
  B  B4  1  0.44224091  0.05257449  0.94280695  1
  B  B5  1  0.05811645  0.55277319  0.55687868  1
  Cu  Cu6  1  0.93615934  0.06809280  0.43571796  1
  Cu  Cu7  1  0.56345675  0.56800170  0.06486085  1
  Cl  Cl8  1  0.45654660  0.22048972  0.95732847  1
  Cl  Cl9  1  0.35180247  0.99721371  0.16978012  1
  Cl  Cl10  1  0.79088023  0.95611112  0.28980808  1
  Cl  Cl11  1  0.03946760  0.21991103  0.53994947  1
  Cl  Cl12  1  0.28309543  0.01003258  0.78397761  1
  Cl  Cl13  1  0.66914995  0.99722763  0.85160135  1
  Cl  Cl14  1  0.45966809  0.71980912  0.96051958  1
  Cl  Cl15  1  0.70912461  0.45585907  0.21053662  1
  Cl  Cl16  1  0.14813815  0.49708882  0.32992823  1
  Cl  Cl17  1  0.04388952  0.72070146  0.54201688  1
  Cl  Cl18  1  0.21750189  0.51006129  0.71550893  1
  Cl  Cl19  1  0.83125794  0.49788057  0.64855585  1
