# generated using pymatgen
data_Cs2AlBCl6
_symmetry_space_group_name_H-M   'P 1'
_cell_length_a   7.46641198
_cell_length_b   11.54701304
_cell_length_c   7.46382264
_cell_angle_alpha   90.01557911
_cell_angle_beta   78.75684024
_cell_angle_gamma   90.00810657
_symmetry_Int_Tables_number   1
_chemical_formula_structural   Cs2AlBCl6
_chemical_formula_sum   'Cs4 Al2 B2 Cl12'
_cell_volume   631.14209677
_cell_formula_units_Z   2
loop_
 _symmetry_equiv_pos_site_id
 _symmetry_equiv_pos_as_xyz
  1  'x, y, z'
loop_
 _atom_site_type_symbol
 _atom_site_label
 _atom_site_symmetry_multiplicity
 _atom_site_fract_x
 _atom_site_fract_y
 _atom_site_fract_z
 _atom_site_occupancy
  Cs  Cs0  1  0.49368476  0.25885188  0.47159317  1
  Cs  Cs1  1  0.97126015  0.25919362  0.99363668  1
  Cs  Cs2  1  0.52917971  0.75913999  0.50657154  1
  Cs  Cs3  1  0.00584689  0.75886907  0.02829693  1
  B  B4  1  0.44689478  0.04974628  0.94736691  1
  B  B5  1  0.05332236  0.54999295  0.55242080  1
  Al  Al6  1  0.99499578  0.00865575  0.49508757  1
  Al  Al7  1  0.50473295  0.50845117  0.00501479  1
  Cl  Cl8  1  0.46540572  0.21193883  0.96587069  1
  Cl  Cl9  1  0.34847235  0.99070558  0.17736196  1
  Cl  Cl10  1  0.79121081  0.00314803  0.29051504  1
  Cl  Cl11  1  0.99813335  0.21102777  0.49842888  1
  Cl  Cl12  1  0.28751798  0.01534343  0.78819239  1
  Cl  Cl13  1  0.67677353  0.99074498  0.84846648  1
  Cl  Cl14  1  0.50128587  0.71080133  0.00217707  1
  Cl  Cl15  1  0.70850954  0.50293128  0.20958678  1
  Cl  Cl16  1  0.15138344  0.49072361  0.32242875  1
  Cl  Cl17  1  0.03520785  0.71218942  0.53373901  1
  Cl  Cl18  1  0.21277088  0.51554041  0.71145833  1
  Cl  Cl19  1  0.82335668  0.49122896  0.65157504  1
