# generated using pymatgen
data_Cs2MgBCl6
_symmetry_space_group_name_H-M   'P 1'
_cell_length_a   7.56463101
_cell_length_b   11.13344436
_cell_length_c   7.77170361
_cell_angle_alpha   86.14824189
_cell_angle_beta   91.57666642
_cell_angle_gamma   93.72859715
_symmetry_Int_Tables_number   1
_chemical_formula_structural   Cs2MgBCl6
_chemical_formula_sum   'Cs4 Mg2 B2 Cl12'
_cell_volume   651.49904303
_cell_formula_units_Z   2
loop_
 _symmetry_equiv_pos_site_id
 _symmetry_equiv_pos_as_xyz
  1  'x, y, z'
loop_
 _atom_site_type_symbol
 _atom_site_label
 _atom_site_symmetry_multiplicity
 _atom_site_fract_x
 _atom_site_fract_y
 _atom_site_fract_z
 _atom_site_occupancy
  Cs  Cs0  1  0.47822545  0.25543839  0.50090972  1
  Cs  Cs1  1  0.99026446  0.24721569  0.04836217  1
  Cs  Cs2  1  0.51427481  0.76223473  0.41456201  1
  Cs  Cs3  1  0.05361087  0.75213588  0.99847814  1
  B  B4  1  0.50866447  0.91452470  0.97835367  1
  B  B5  1  0.99947539  0.44081687  0.63251874  1
  Mg  Mg6  1  0.03698913  0.97386177  0.47910070  1
  Mg  Mg7  1  0.52126029  0.49146586  0.05150742  1
  Cl  Cl8  1  0.50419227  0.29906610  0.94856565  1
  Cl  Cl9  1  0.24719676  0.03919507  0.27483788  1
  Cl  Cl10  1  0.76844882  0.04486978  0.36813941  1
  Cl  Cl11  1  0.97644961  0.30249848  0.53821125  1
  Cl  Cl12  1  0.13574862  0.03555336  0.74863254  1
  Cl  Cl13  1  0.65451827  0.98521826  0.82809525  1
  Cl  Cl14  1  0.53175622  0.67199911  0.87205360  1
  Cl  Cl15  1  0.77213341  0.50859752  0.22828287  1
  Cl  Cl16  1  0.27197190  0.49887637  0.22078197  1
  Cl  Cl17  1  0.01267871  0.76540881  0.48552955  1
  Cl  Cl18  1  0.20902282  0.50363962  0.68436266  1
  Cl  Cl19  1  0.81306310  0.50660797  0.69850362  1
