# generated using pymatgen
data_Cs2BNCl6
_symmetry_space_group_name_H-M   'P 1'
_cell_length_a   7.80267658
_cell_length_b   10.35389994
_cell_length_c   7.24624609
_cell_angle_alpha   89.98844024
_cell_angle_beta   95.67113472
_cell_angle_gamma   89.97310839
_symmetry_Int_Tables_number   1
_chemical_formula_structural   Cs2BNCl6
_chemical_formula_sum   'Cs4 B2 N2 Cl12'
_cell_volume   582.54530364
_cell_formula_units_Z   2
loop_
 _symmetry_equiv_pos_site_id
 _symmetry_equiv_pos_as_xyz
  1  'x, y, z'
loop_
 _atom_site_type_symbol
 _atom_site_label
 _atom_site_symmetry_multiplicity
 _atom_site_fract_x
 _atom_site_fract_y
 _atom_site_fract_z
 _atom_site_occupancy
  Cs  Cs0  1  0.47854044  0.27443016  0.51599274  1
  Cs  Cs1  1  0.97524103  0.21221971  0.07908738  1
  Cs  Cs2  1  0.52433007  0.71223877  0.42100860  1
  Cs  Cs3  1  0.02144214  0.77426977  0.98418894  1
  B  B4  1  0.53760896  0.94586217  0.90621200  1
  B  B5  1  0.96221859  0.44605370  0.59377128  1
  N  N6  1  0.03888426  0.97095185  0.32538037  1
  N  N7  1  0.46133974  0.47096203  0.17431505  1
  Cl  Cl8  1  0.48837063  0.32879803  0.04294023  1
  Cl  Cl9  1  0.26599378  0.99017235  0.31483388  1
  Cl  Cl10  1  0.63303574  0.99724063  0.14046002  1
  Cl  Cl11  1  0.99555177  0.26684344  0.58813075  1
  Cl  Cl12  1  0.33107197  0.02796702  0.83416797  1
  Cl  Cl13  1  0.69650548  0.98506691  0.73487179  1
  Cl  Cl14  1  0.50409697  0.76670353  0.91203723  1
  Cl  Cl15  1  0.86709803  0.49750612  0.35938759  1
  Cl  Cl16  1  0.23416612  0.48971285  0.18503894  1
  Cl  Cl17  1  0.01245716  0.82882700  0.45707810  1
  Cl  Cl18  1  0.16877939  0.52792610  0.66598180  1
  Cl  Cl19  1  0.80321311  0.48547218  0.76490414  1
