# generated using pymatgen
data_Cs2PbCCl6
_symmetry_space_group_name_H-M   'P 1'
_cell_length_a   7.64084519
_cell_length_b   10.97649468
_cell_length_c   7.80016264
_cell_angle_alpha   91.37123928
_cell_angle_beta   90.00010386
_cell_angle_gamma   89.99973011
_symmetry_Int_Tables_number   1
_chemical_formula_structural   Cs2PbCCl6
_chemical_formula_sum   'Cs4 Pb2 C2 Cl12'
_cell_volume   654.00992996
_cell_formula_units_Z   2
loop_
 _symmetry_equiv_pos_site_id
 _symmetry_equiv_pos_as_xyz
  1  'x, y, z'
loop_
 _atom_site_type_symbol
 _atom_site_label
 _atom_site_symmetry_multiplicity
 _atom_site_fract_x
 _atom_site_fract_y
 _atom_site_fract_z
 _atom_site_occupancy
  Cs  Cs0  1  0.49997690  0.25342914  0.46706848  1
  Cs  Cs1  1  0.99998144  0.24649530  0.03292872  1
  Cs  Cs2  1  0.50001548  0.74716757  0.47838177  1
  Cs  Cs3  1  0.00001015  0.75274268  0.02156654  1
  C  C4  1  0.50000783  0.03759733  0.92922853  1
  C  C5  1  0.99999627  0.46232167  0.57075864  1
  Pb  Pb6  1  0.00000472  0.99979177  0.50463652  1
  Pb  Pb7  1  0.49999472  0.50012462  0.99534076  1
  Cl  Cl8  1  0.49997814  0.21362467  0.96328140  1
  Cl  Cl9  1  0.24460602  0.00700265  0.26619859  1
  Cl  Cl10  1  0.75534835  0.00698343  0.26624204  1
  Cl  Cl11  1  0.99995744  0.28629147  0.53673038  1
  Cl  Cl12  1  0.30351578  0.01292096  0.78025298  1
  Cl  Cl13  1  0.69653088  0.01294544  0.78029174  1
  Cl  Cl14  1  0.50002490  0.73938237  0.98355374  1
  Cl  Cl15  1  0.74459706  0.49292674  0.23378349  1
  Cl  Cl16  1  0.25534031  0.49294781  0.23374061  1
  Cl  Cl17  1  0.00003430  0.76053127  0.51638414  1
  Cl  Cl18  1  0.19652211  0.48697894  0.71969122  1
  Cl  Cl19  1  0.80350257  0.48701851  0.71972852  1
