# generated using pymatgen
data_AgBiH12C2(I3N)2
_symmetry_space_group_name_H-M   'P 1'
_cell_length_a   8.38849308
_cell_length_b   12.23116885
_cell_length_c   8.29115736
_cell_angle_alpha   90.68417356
_cell_angle_beta   90.01555150
_cell_angle_gamma   89.98943263
_symmetry_Int_Tables_number   1
_chemical_formula_structural   AgBiH12C2(I3N)2
_chemical_formula_sum   'Ag2 Bi2 H24 C4 I12 N4'
_cell_volume   850.62096618
_cell_formula_units_Z   2
loop_
 _symmetry_equiv_pos_site_id
 _symmetry_equiv_pos_as_xyz
  1  'x, y, z'
loop_
 _atom_site_type_symbol
 _atom_site_label
 _atom_site_symmetry_multiplicity
 _atom_site_fract_x
 _atom_site_fract_y
 _atom_site_fract_z
 _atom_site_occupancy
  C  C0  1  0.39688765  0.25028193  0.41448244  1
  C  C1  1  0.89808843  0.24990661  0.08658787  1
  C  C2  1  0.60310835  0.74972220  0.58552955  1
  C  C3  1  0.10191752  0.75009545  0.91342250  1
  N  N4  1  0.53856996  0.25056505  0.52131622  1
  N  N5  1  0.03908424  0.24947368  0.97892651  1
  N  N6  1  0.46142410  0.74943898  0.47869839  1
  N  N7  1  0.96092271  0.75052593  0.02108515  1
  H  H8  1  0.43725532  0.24933575  0.28892683  1
  H  H9  1  0.32685693  0.17698252  0.43832251  1
  H  H10  1  0.32644503  0.32372996  0.43925501  1
  H  H11  1  0.60785841  0.18158983  0.49834265  1
  H  H12  1  0.60865465  0.31890993  0.49900433  1
  H  H13  1  0.50799765  0.25122957  0.64345697  1
  H  H14  1  0.93928784  0.25090466  0.21189659  1
  H  H15  1  0.82743395  0.17648387  0.06237599  1
  H  H16  1  0.82796551  0.32324564  0.06312250  1
  H  H17  1  0.10922648  0.18107260  0.00092189  1
  H  H18  1  0.10856906  0.31840021  0.00145859  1
  H  H19  1  0.00778982  0.24877801  0.85696074  1
  H  H20  1  0.56274300  0.75066844  0.71108588  1
  H  H21  1  0.67355043  0.67627409  0.56075572  1
  H  H22  1  0.67313874  0.82302158  0.56168802  1
  H  H23  1  0.39213589  0.81841413  0.50167328  1
  H  H24  1  0.39134005  0.68109397  0.50101127  1
  H  H25  1  0.49199450  0.74877468  0.35655709  1
  H  H26  1  0.06071706  0.74909941  0.78811413  1
  H  H27  1  0.17257205  0.82351779  0.93763657  1
  H  H28  1  0.17204094  0.67675594  0.93688437  1
  H  H29  1  0.89077876  0.81892647  0.99909150  1
  H  H30  1  0.89143921  0.68159881  0.99855203  1
  H  H31  1  0.99221785  0.75122099  0.14305041  1
  Ag  Ag32  1  0.50000544  0.00000522  0.00000413  1
  Ag  Ag33  1  0.99999837  0.50000575  0.50000657  1
  Bi  Bi34  1  0.00000127  0.00000319  0.50000543  1
  Bi  Bi35  1  0.49999954  0.50000315  0.00000724  1
  I  I36  1  0.47593421  0.24993819  0.94547110  1
  I  I37  1  0.18897896  0.01329411  0.17861799  1
  I  I38  1  0.67985243  0.00983082  0.31421797  1
  I  I39  1  0.97517934  0.25003045  0.55514667  1
  I  I40  1  0.32014992  0.99017494  0.68579549  1
  I  I41  1  0.81102828  0.98670689  0.82139563  1
  I  I42  1  0.52406993  0.75006681  0.05454403  1
  I  I43  1  0.68897091  0.48662445  0.32144404  1
  I  I44  1  0.17995569  0.49027191  0.18573347  1
  I  I45  1  0.02481766  0.74997434  0.44486608  1
  I  I46  1  0.31102755  0.51337743  0.67856868  1
  I  I47  1  0.82004218  0.50973197  0.81427859  1
