# generated using pymatgen
data_Cs2BaCCl6
_symmetry_space_group_name_H-M   'P 1'
_cell_length_a   7.85818408
_cell_length_b   11.19830909
_cell_length_c   7.87822402
_cell_angle_alpha   90.82411352
_cell_angle_beta   90.00056059
_cell_angle_gamma   90.00335807
_symmetry_Int_Tables_number   1
_chemical_formula_structural   Cs2BaCCl6
_chemical_formula_sum   'Cs4 Ba2 C2 Cl12'
_cell_volume   693.19919192
_cell_formula_units_Z   2
loop_
 _symmetry_equiv_pos_site_id
 _symmetry_equiv_pos_as_xyz
  1  'x, y, z'
loop_
 _atom_site_type_symbol
 _atom_site_label
 _atom_site_symmetry_multiplicity
 _atom_site_fract_x
 _atom_site_fract_y
 _atom_site_fract_z
 _atom_site_occupancy
  Cs  Cs0  1  0.49981388  0.25145666  0.44755411  1
  Cs  Cs1  1  0.99981420  0.24846741  0.05244767  1
  Cs  Cs2  1  0.49993738  0.75290446  0.45600184  1
  Cs  Cs3  1  0.99996118  0.74702097  0.04396973  1
  C  C4  1  0.50005815  0.04456891  0.92274395  1
  C  C5  1  0.00008218  0.45535110  0.57724029  1
  Ba  Ba6  1  0.99997287  0.00096152  0.51872486  1
  Ba  Ba7  1  0.50000115  0.49895218  0.98125069  1
  Cl  Cl8  1  0.49987980  0.21951666  0.94841693  1
  Cl  Cl9  1  0.25210966  0.01859549  0.25460169  1
  Cl  Cl10  1  0.74704273  0.01858874  0.25539316  1
  Cl  Cl11  1  0.00000951  0.28039532  0.55163211  1
  Cl  Cl12  1  0.30892110  0.01995591  0.77262576  1
  Cl  Cl13  1  0.69202990  0.02008747  0.77368853  1
  Cl  Cl14  1  0.50013575  0.75269288  0.95210533  1
  Cl  Cl15  1  0.75211714  0.48126568  0.24538332  1
  Cl  Cl16  1  0.24706003  0.48137020  0.24458080  1
  Cl  Cl17  1  0.00001122  0.74721898  0.54779492  1
  Cl  Cl18  1  0.19204624  0.47993895  0.72627151  1
  Cl  Cl19  1  0.80894131  0.47991483  0.72736161  1
