# generated using pymatgen
data_Cs2PdCCl6
_symmetry_space_group_name_H-M   'P 1'
_cell_length_a   8.82527434
_cell_length_b   9.94515355
_cell_length_c   7.14631199
_cell_angle_alpha   92.43578051
_cell_angle_beta   74.39176138
_cell_angle_gamma   90.34523636
_symmetry_Int_Tables_number   1
_chemical_formula_structural   Cs2PdCCl6
_chemical_formula_sum   'Cs4 Pd2 C2 Cl12'
_cell_volume   603.53769970
_cell_formula_units_Z   2
loop_
 _symmetry_equiv_pos_site_id
 _symmetry_equiv_pos_as_xyz
  1  'x, y, z'
loop_
 _atom_site_type_symbol
 _atom_site_label
 _atom_site_symmetry_multiplicity
 _atom_site_fract_x
 _atom_site_fract_y
 _atom_site_fract_z
 _atom_site_occupancy
  Cs  Cs0  1  0.47305562  0.28880936  0.49482625  1
  Cs  Cs1  1  0.02699282  0.21108479  0.00507130  1
  Cs  Cs2  1  0.46505417  0.79608681  0.34244806  1
  Cs  Cs3  1  0.03496877  0.70383388  0.15760720  1
  C  C4  1  0.55079559  0.01227053  0.93958054  1
  C  C5  1  0.94918235  0.48768177  0.56033216  1
  Pd  Pd6  1  0.93170131  0.96694752  0.55689771  1
  Pd  Pd7  1  0.56830937  0.53296522  0.94309478  1
  Cl  Cl8  1  0.59384815  0.18520517  0.96461227  1
  Cl  Cl9  1  0.16858333  0.02737031  0.31886414  1
  Cl  Cl10  1  0.76782084  0.01972462  0.35623892  1
  Cl  Cl11  1  0.90606418  0.31474963  0.53535875  1
  Cl  Cl12  1  0.40432116  0.99256790  0.81306679  1
  Cl  Cl13  1  0.72291358  0.91760302  0.83006879  1
  Cl  Cl14  1  0.41053074  0.61712267  0.76146491  1
  Cl  Cl15  1  0.73220125  0.48023947  0.14373149  1
  Cl  Cl16  1  0.33147951  0.47257473  0.18116091  1
  Cl  Cl17  1  0.08942665  0.88269168  0.73851859  1
  Cl  Cl18  1  0.09564385  0.50732822  0.68690287  1
  Cl  Cl19  1  0.77705215  0.58236704  0.66994237  1
