# generated using pymatgen
data_Cs2SrCCl6
_symmetry_space_group_name_H-M   'P 1'
_cell_length_a   7.62417009
_cell_length_b   10.96212373
_cell_length_c   7.82452335
_cell_angle_alpha   91.64477017
_cell_angle_beta   89.99998542
_cell_angle_gamma   90.00169446
_symmetry_Int_Tables_number   1
_chemical_formula_structural   Cs2SrCCl6
_chemical_formula_sum   'Cs4 Sr2 C2 Cl12'
_cell_volume   653.68150454
_cell_formula_units_Z   2
loop_
 _symmetry_equiv_pos_site_id
 _symmetry_equiv_pos_as_xyz
  1  'x, y, z'
loop_
 _atom_site_type_symbol
 _atom_site_label
 _atom_site_symmetry_multiplicity
 _atom_site_fract_x
 _atom_site_fract_y
 _atom_site_fract_z
 _atom_site_occupancy
  Cs  Cs0  1  0.49993460  0.25567231  0.45145159  1
  Cs  Cs1  1  0.99992410  0.24424845  0.04853621  1
  Cs  Cs2  1  0.49998719  0.74791594  0.46361443  1
  Cs  Cs3  1  0.00001662  0.75203506  0.03633910  1
  C  C4  1  0.50000015  0.04415976  0.91836813  1
  C  C5  1  0.00003377  0.45575535  0.58161599  1
  Sr  Sr6  1  0.99995614  0.00235899  0.50840719  1
  Sr  Sr7  1  0.49997560  0.49755996  0.99156983  1
  Cl  Cl8  1  0.49990607  0.22507853  0.94584245  1
  Cl  Cl9  1  0.25201567  0.01671253  0.26318579  1
  Cl  Cl10  1  0.74765817  0.01667349  0.26343800  1
  Cl  Cl11  1  0.99995503  0.27483051  0.55417781  1
  Cl  Cl12  1  0.30175477  0.01589077  0.77005203  1
  Cl  Cl13  1  0.69857641  0.01596831  0.77043296  1
  Cl  Cl14  1  0.50007744  0.74128380  0.94686034  1
  Cl  Cl15  1  0.75200882  0.48320231  0.23681536  1
  Cl  Cl16  1  0.24765524  0.48324517  0.23652053  1
  Cl  Cl17  1  0.00004637  0.75863260  0.55309412  1
  Cl  Cl18  1  0.19864062  0.48398323  0.72949504  1
  Cl  Cl19  1  0.80182259  0.48401726  0.72997190  1
