# generated using pymatgen
data_AgH12IrC2(I3N)2
_symmetry_space_group_name_H-M   'P 1'
_cell_length_a   7.96243315
_cell_length_b   11.93702362
_cell_length_c   7.94920822
_cell_angle_alpha   92.89450104
_cell_angle_beta   90.02417647
_cell_angle_gamma   89.97388010
_symmetry_Int_Tables_number   1
_chemical_formula_structural   AgH12IrC2(I3N)2
_chemical_formula_sum   'Ag2 H24 Ir2 C4 I12 N4'
_cell_volume   754.59030762
_cell_formula_units_Z   2
loop_
 _symmetry_equiv_pos_site_id
 _symmetry_equiv_pos_as_xyz
  1  'x, y, z'
loop_
 _atom_site_type_symbol
 _atom_site_label
 _atom_site_symmetry_multiplicity
 _atom_site_fract_x
 _atom_site_fract_y
 _atom_site_fract_z
 _atom_site_occupancy
  C  C0  1  0.39490388  0.25095717  0.41052837  1
  C  C1  1  0.89614326  0.24923089  0.09035051  1
  C  C2  1  0.60509440  0.74904764  0.58948322  1
  C  C3  1  0.10386208  0.75077274  0.90966387  1
  N  N4  1  0.54295334  0.25250865  0.52197265  1
  N  N5  1  0.04345229  0.24753061  0.97806215  1
  N  N6  1  0.45704449  0.74749498  0.47803942  1
  N  N7  1  0.95655544  0.75246751  0.02195514  1
  H  H8  1  0.43751159  0.24748783  0.27963417  1
  H  H9  1  0.32025396  0.17688108  0.43447216  1
  H  H10  1  0.32146801  0.32704066  0.43742274  1
  H  H11  1  0.61544696  0.18106471  0.49797844  1
  H  H12  1  0.61785588  0.32134681  0.50069950  1
  H  H13  1  0.51029485  0.25617979  0.64993235  1
  H  H14  1  0.93957581  0.25280849  0.22097867  1
  H  H15  1  0.82254923  0.17318407  0.06404068  1
  H  H16  1  0.82129424  0.32335834  0.06670259  1
  H  H17  1  0.11850034  0.17860584  0.99905534  1
  H  H18  1  0.11611040  0.31890044  0.00165040  1
  H  H19  1  0.01006423  0.24380737  0.85031847  1
  H  H20  1  0.56248712  0.75251721  0.72037758  1
  H  H21  1  0.67853021  0.67296372  0.56258955  1
  H  H22  1  0.67974413  0.82312326  0.56553858  1
  H  H23  1  0.38455077  0.81893917  0.50203367  1
  H  H24  1  0.38214247  0.67865700  0.49931417  1
  H  H25  1  0.48970234  0.74382374  0.35007967  1
  H  H26  1  0.06042697  0.74719709  0.77903684  1
  H  H27  1  0.17745370  0.82682021  0.93597627  1
  H  H28  1  0.17871448  0.67664576  0.93330637  1
  H  H29  1  0.88150245  0.82139073  0.00096606  1
  H  H30  1  0.88390092  0.68109622  0.99836519  1
  H  H31  1  0.98994548  0.75618987  0.14969796  1
  Ag  Ag32  1  0.50000298  0.00000836  0.00000316  1
  Ag  Ag33  1  0.99998119  0.50000998  0.49998437  1
  Ir  Ir34  1  0.99999930  0.00000194  0.50000827  1
  Ir  Ir35  1  0.50000207  0.50000240  0.00000211  1
  I  I36  1  0.47442579  0.27355600  0.94961780  1
  I  I37  1  0.17408101  0.00958075  0.20203480  1
  I  I38  1  0.70341378  0.99813227  0.32316846  1
  I  I39  1  0.97361869  0.22639056  0.55085829  1
  I  I40  1  0.29658642  0.00187160  0.67684592  1
  I  I41  1  0.82592195  0.99042003  0.79798301  1
  I  I42  1  0.52557982  0.72644797  0.05039196  1
  I  I43  1  0.67401985  0.49037202  0.29808659  1
  I  I44  1  0.20347250  0.50194357  0.17667878  1
  I  I45  1  0.02638118  0.77361176  0.44915858  1
  I  I46  1  0.32597116  0.50962998  0.70192502  1
  I  I47  1  0.79653033  0.49805951  0.82332669  1
