# generated using pymatgen
data_Cs2SiCCl6
_symmetry_space_group_name_H-M   'P 1'
_cell_length_a   7.41114122
_cell_length_b   10.72882189
_cell_length_c   7.60918821
_cell_angle_alpha   90.00437071
_cell_angle_beta   90.00011942
_cell_angle_gamma   89.99775193
_symmetry_Int_Tables_number   1
_chemical_formula_structural   Cs2SiCCl6
_chemical_formula_sum   'Cs4 Si2 C2 Cl12'
_cell_volume   605.02796553
_cell_formula_units_Z   2
loop_
 _symmetry_equiv_pos_site_id
 _symmetry_equiv_pos_as_xyz
  1  'x, y, z'
loop_
 _atom_site_type_symbol
 _atom_site_label
 _atom_site_symmetry_multiplicity
 _atom_site_fract_x
 _atom_site_fract_y
 _atom_site_fract_z
 _atom_site_occupancy
  Cs  Cs0  1  0.49993513  0.25865276  0.49197489  1
  Cs  Cs1  1  0.99994788  0.25356182  0.99572754  1
  Cs  Cs2  1  0.50004264  0.75346937  0.50456029  1
  Cs  Cs3  1  0.00003159  0.75876425  0.00768240  1
  C  C4  1  0.50000034  0.02969863  0.94231574  1
  C  C5  1  0.00007167  0.52949800  0.55758158  1
  Si  Si6  1  0.99995397  0.01537007  0.47863643  1
  Si  Si7  1  0.50001183  0.51551427  0.02141476  1
  Cl  Cl8  1  0.49996574  0.20728778  0.97545936  1
  Cl  Cl9  1  0.22326978  0.99973849  0.28284931  1
  Cl  Cl10  1  0.77651332  0.99970951  0.28299726  1
  Cl  Cl11  1  0.99992350  0.22286760  0.48990867  1
  Cl  Cl12  1  0.29774076  0.00640827  0.78802097  1
  Cl  Cl13  1  0.70236681  0.00641872  0.78814778  1
  Cl  Cl14  1  0.50003738  0.72303388  0.01055010  1
  Cl  Cl15  1  0.72330510  0.49969971  0.21717379  1
  Cl  Cl16  1  0.27654264  0.49971974  0.21697687  1
  Cl  Cl17  1  0.00007373  0.70703841  0.52407942  1
  Cl  Cl18  1  0.20241886  0.50637450  0.71182105  1
  Cl  Cl19  1  0.79779269  0.50639856  0.71191058  1
