# generated using pymatgen
data_Cs2BiNCl6
_symmetry_space_group_name_H-M   'P 1'
_cell_length_a   7.94273278
_cell_length_b   11.05772722
_cell_length_c   7.65114043
_cell_angle_alpha   89.99789437
_cell_angle_beta   106.08727860
_cell_angle_gamma   90.00901734
_symmetry_Int_Tables_number   1
_chemical_formula_structural   Cs2BiNCl6
_chemical_formula_sum   'Cs4 Bi2 N2 Cl12'
_cell_volume   645.67412598
_cell_formula_units_Z   2
loop_
 _symmetry_equiv_pos_site_id
 _symmetry_equiv_pos_as_xyz
  1  'x, y, z'
loop_
 _atom_site_type_symbol
 _atom_site_label
 _atom_site_symmetry_multiplicity
 _atom_site_fract_x
 _atom_site_fract_y
 _atom_site_fract_z
 _atom_site_occupancy
  Cs  Cs0  1  0.52796106  0.26901175  0.46034760  1
  Cs  Cs1  1  0.97421180  0.27475633  0.07862579  1
  Cs  Cs2  1  0.52576586  0.77478095  0.42134859  1
  Cs  Cs3  1  0.97205955  0.76900383  0.03962758  1
  N  N4  1  0.34173978  0.84574041  0.99805677  1
  N  N5  1  0.15824431  0.34579244  0.50192682  1
  Bi  Bi6  1  0.02727909  0.00435226  0.55929132  1
  Bi  Bi7  1  0.47269483  0.50434544  0.94069230  1
  Cl  Cl8  1  0.47647903  0.27190790  0.94947730  1
  Cl  Cl9  1  0.24088054  0.02495129  0.34134586  1
  Cl  Cl10  1  0.76445547  0.02130409  0.26457752  1
  Cl  Cl11  1  0.01072501  0.27171217  0.60714253  1
  Cl  Cl12  1  0.31624528  0.99162924  0.91206409  1
  Cl  Cl13  1  0.78950001  0.02420296  0.75144403  1
  Cl  Cl14  1  0.48926511  0.77172849  0.89281078  1
  Cl  Cl15  1  0.73553070  0.52130355  0.23538028  1
  Cl  Cl16  1  0.25912484  0.52493373  0.15867847  1
  Cl  Cl17  1  0.02356809  0.77191737  0.55047804  1
  Cl  Cl18  1  0.18373921  0.49165251  0.58791268  1
  Cl  Cl19  1  0.71047580  0.52419764  0.74856045  1
