# generated using pymatgen
data_Cs2InNCl6
_symmetry_space_group_name_H-M   'P 1'
_cell_length_a   7.02221535
_cell_length_b   11.54483472
_cell_length_c   7.58448833
_cell_angle_alpha   91.21306105
_cell_angle_beta   90.00045926
_cell_angle_gamma   90.00026077
_symmetry_Int_Tables_number   1
_chemical_formula_structural   Cs2InNCl6
_chemical_formula_sum   'Cs4 In2 N2 Cl12'
_cell_volume   614.73905846
_cell_formula_units_Z   2
loop_
 _symmetry_equiv_pos_site_id
 _symmetry_equiv_pos_as_xyz
  1  'x, y, z'
loop_
 _atom_site_type_symbol
 _atom_site_label
 _atom_site_symmetry_multiplicity
 _atom_site_fract_x
 _atom_site_fract_y
 _atom_site_fract_z
 _atom_site_occupancy
  Cs  Cs0  1  0.50001504  0.26250351  0.51576143  1
  Cs  Cs1  1  0.00001447  0.23737806  0.98429313  1
  Cs  Cs2  1  0.49999306  0.74094347  0.53426431  1
  Cs  Cs3  1  0.99999532  0.75896103  0.96565686  1
  N  N4  1  0.49996630  0.06352401  0.22560088  1
  N  N5  1  0.99995758  0.43647542  0.27432843  1
  In  In6  1  0.00002362  0.99763135  0.53450000  1
  In  In7  1  0.50002822  0.50228344  0.96548060  1
  Cl  Cl8  1  0.50001391  0.29472403  0.03363620  1
  Cl  Cl9  1  0.29467054  0.97625695  0.25346095  1
  Cl  Cl10  1  0.70526992  0.97626286  0.25346370  1
  Cl  Cl11  1  0.00001384  0.20517317  0.46645570  1
  Cl  Cl12  1  0.26012006  0.99722518  0.75270430  1
  Cl  Cl13  1  0.73991796  0.99723326  0.75269429  1
  Cl  Cl14  1  0.49998519  0.71384326  0.04411273  1
  Cl  Cl15  1  0.79458934  0.52368884  0.24650225  1
  Cl  Cl16  1  0.20533922  0.52368086  0.24649738  1
  Cl  Cl17  1  0.99998637  0.78613726  0.45580521  1
  Cl  Cl18  1  0.23990029  0.50264448  0.74728720  1
  Cl  Cl19  1  0.76014509  0.50265389  0.74728326  1
