# generated using pymatgen
data_BH6CI3N
_symmetry_space_group_name_H-M   'P 1'
_cell_length_a   7.63012140
_cell_length_b   10.73678933
_cell_length_c   10.38040801
_cell_angle_alpha   84.65013225
_cell_angle_beta   91.94537792
_cell_angle_gamma   93.31621738
_symmetry_Int_Tables_number   1
_chemical_formula_structural   BH6CI3N
_chemical_formula_sum   'B4 H24 C4 I12 N4'
_cell_volume   844.92321971
_cell_formula_units_Z   4
loop_
 _symmetry_equiv_pos_site_id
 _symmetry_equiv_pos_as_xyz
  1  'x, y, z'
loop_
 _atom_site_type_symbol
 _atom_site_label
 _atom_site_symmetry_multiplicity
 _atom_site_fract_x
 _atom_site_fract_y
 _atom_site_fract_z
 _atom_site_occupancy
  C  C0  1  0.42718701  0.15992038  0.44006119  1
  C  C1  1  0.07260042  0.33658356  0.99470409  1
  C  C2  1  0.42731379  0.76530479  0.41251854  1
  C  C3  1  0.03449112  0.70427677  0.06565234  1
  N  N4  1  0.46281880  0.22168972  0.56113286  1
  N  N5  1  0.21964616  0.34662283  0.90237491  1
  N  N6  1  0.37923146  0.73213038  0.28047666  1
  N  N7  1  0.03565478  0.74525839  0.19736326  1
  H  H8  1  0.48535847  0.21888102  0.35894451  1
  H  H9  1  0.48629483  0.06892704  0.45107773  1
  H  H10  1  0.28480706  0.14844978  0.42414035  1
  H  H11  1  0.59654569  0.23313233  0.58312129  1
  H  H12  1  0.41389600  0.31063286  0.55465815  1
  H  H13  1  0.40503058  0.16850615  0.63957426  1
  H  H14  1  0.12596603  0.34969552  0.09220616  1
  H  H15  1  0.00522525  0.24354084  0.99491373  1
  H  H16  1  0.98081058  0.40921917  0.96400848  1
  H  H17  1  0.29300904  0.26835928  0.91971263  1
  H  H18  1  0.25876594  0.56008240  0.90828598  1
  H  H19  1  0.16435959  0.34166082  0.80985919  1
  H  H20  1  0.35363303  0.70261124  0.48345960  1
  H  H21  1  0.56816553  0.75558604  0.43156871  1
  H  H22  1  0.39463095  0.86225322  0.42059155  1
  H  H23  1  0.06868557  0.95366298  0.48984336  1
  H  H24  1  0.40726702  0.64069616  0.26986881  1
  H  H25  1  0.44924341  0.78734542  0.21053918  1
  H  H26  1  0.90670103  0.71235499  0.01399315  1
  H  H27  1  0.13360393  0.76111160  0.00829044  1
  H  H28  1  0.06994515  0.60630210  0.07164948  1
  H  H29  1  0.99571240  0.83517002  0.19383116  1
  H  H30  1  0.94740529  0.68979040  0.25293002  1
  H  H31  1  0.23628259  0.73974472  0.25440613  1
  B  B32  1  0.43888483  0.99513522  0.94784693  1
  B  B33  1  0.97692818  0.46184349  0.50284047  1
  B  B34  1  0.91609164  0.97178340  0.47441233  1
  B  B35  1  0.34301493  0.46996727  0.90505405  1
  I  I36  1  0.64831949  0.14523223  0.90227647  1
  I  I37  1  0.29832617  0.04063483  0.12520785  1
  I  I38  1  0.82824766  0.05180424  0.28983775  1
  I  I39  1  0.94756770  0.27511822  0.62485390  1
  I  I40  1  0.23520138  0.99261290  0.78245309  1
  I  I41  1  0.74730577  0.91776812  0.62951691  1
  I  I42  1  0.55467799  0.80722635  0.97475602  1
  I  I43  1  0.72638174  0.49033873  0.38626197  1
  I  I44  1  0.18796563  0.43780705  0.36124411  1
  I  I45  1  0.03139966  0.61797685  0.62666018  1
  I  I46  1  0.50872480  0.49672499  0.72811735  1
  I  I47  1  0.52069766  0.44860146  0.08319931  1
