# generated using pymatgen
data_BeH12PbC2(I3N)2
_symmetry_space_group_name_H-M   'P 1'
_cell_length_a   7.59493248
_cell_length_b   12.48007622
_cell_length_c   9.27898833
_cell_angle_alpha   91.97158947
_cell_angle_beta   90.02867606
_cell_angle_gamma   89.98466182
_symmetry_Int_Tables_number   1
_chemical_formula_structural   BeH12PbC2(I3N)2
_chemical_formula_sum   'Be2 H24 Pb2 C4 I12 N4'
_cell_volume   878.99122818
_cell_formula_units_Z   2
loop_
 _symmetry_equiv_pos_site_id
 _symmetry_equiv_pos_as_xyz
  1  'x, y, z'
loop_
 _atom_site_type_symbol
 _atom_site_label
 _atom_site_symmetry_multiplicity
 _atom_site_fract_x
 _atom_site_fract_y
 _atom_site_fract_z
 _atom_site_occupancy
  C  C0  1  0.36192160  0.25786321  0.36076744  1
  C  C1  1  0.82652023  0.26033172  0.13194158  1
  C  C2  1  0.67388686  0.76044496  0.63166928  1
  C  C3  1  0.13776924  0.75799033  0.86039441  1
  N  N4  1  0.47306337  0.24988573  0.49158118  1
  N  N5  1  0.96220894  0.25178562  0.01660717  1
  N  N6  1  0.53773840  0.75180395  0.51660346  1
  N  N7  1  0.02711814  0.74981984  0.99136421  1
  H  H8  1  0.43225959  0.22277680  0.26749640  1
  H  H9  1  0.23824223  0.21489034  0.37765507  1
  H  H10  1  0.33239122  0.34235143  0.34360166  1
  H  H11  1  0.52981653  0.17446442  0.49750057  1
  H  H12  1  0.57409581  0.30671572  0.48992315  1
  H  H13  1  0.40381116  0.26386262  0.58720472  1
  H  H14  1  0.89088790  0.25471086  0.23725149  1
  H  H15  1  0.73086871  0.19553543  0.11507941  1
  H  H16  1  0.76223208  0.33857627  0.12604688  1
  H  H17  1  0.02820063  0.17920629  0.01637820  1
  H  H18  1  0.05450455  0.31371744  0.03132575  1
  H  H19  1  0.90845245  0.25800964  0.91400048  1
  H  H20  1  0.60997540  0.75479823  0.73710429  1
  H  H21  1  0.76962744  0.69569868  0.61462809  1
  H  H22  1  0.73795255  0.83872413  0.62561585  1
  H  H23  1  0.44534589  0.81368789  0.53146935  1
  H  H24  1  0.47194506  0.67918399  0.51652233  1
  H  H25  1  0.59105168  0.75803611  0.41388676  1
  H  H26  1  0.06707157  0.72311250  0.76713277  1
  H  H27  1  0.16726329  0.84250293  0.84347243  1
  H  H28  1  0.26149503  0.71491520  0.87689471  1
  H  H29  1  0.92596481  0.80661356  0.98997126  1
  H  H30  1  0.97054843  0.67436269  0.99723291  1
  H  H31  1  0.09668880  0.76373594  0.08689336  1
  Be  Be32  1  0.58005321  0.93061872  0.10649096  1
  Be  Be33  1  0.91978288  0.43061482  0.60648793  1
  Pb  Pb34  1  0.09554627  0.99824264  0.39281634  1
  Pb  Pb35  1  0.40432239  0.49823442  0.89307607  1
  I  I36  1  0.43057075  0.26366876  0.87801923  1
  I  I37  1  0.27897936  0.00364457  0.08418618  1
  I  I38  1  0.67436836  0.00632880  0.34078426  1
  I  I39  1  0.93608022  0.23818886  0.61924717  1
  I  I40  1  0.32772373  0.98941989  0.65740792  1
  I  I41  1  0.77116086  0.98486457  0.91866153  1
  I  I42  1  0.56386350  0.73818414  0.11915293  1
  I  I43  1  0.72862252  0.48488286  0.41850163  1
  I  I44  1  0.17213247  0.48936897  0.15747756  1
  I  I45  1  0.06966951  0.76367392  0.37778043  1
  I  I46  1  0.22083590  0.50361547  0.58435404  1
  I  I47  1  0.82539220  0.50641237  0.84063582  1
