# generated using pymatgen
data_AgSbH12C2(I3N)2
_symmetry_space_group_name_H-M   'P 1'
_cell_length_a   8.34637150
_cell_length_b   12.13584047
_cell_length_c   8.26341382
_cell_angle_alpha   90.90520346
_cell_angle_beta   90.01895988
_cell_angle_gamma   89.98729250
_symmetry_Int_Tables_number   1
_chemical_formula_structural   AgSbH12C2(I3N)2
_chemical_formula_sum   'Ag2 Sb2 H24 C4 I12 N4'
_cell_volume   836.89858968
_cell_formula_units_Z   2
loop_
 _symmetry_equiv_pos_site_id
 _symmetry_equiv_pos_as_xyz
  1  'x, y, z'
loop_
 _atom_site_type_symbol
 _atom_site_label
 _atom_site_symmetry_multiplicity
 _atom_site_fract_x
 _atom_site_fract_y
 _atom_site_fract_z
 _atom_site_occupancy
  C  C0  1  0.39631530  0.25027987  0.41456476  1
  C  C1  1  0.89749310  0.24992462  0.08648547  1
  C  C2  1  0.60368352  0.74972365  0.58544616  1
  C  C3  1  0.10251262  0.75007706  0.91352875  1
  N  N4  1  0.53871448  0.25062589  0.52170940  1
  N  N5  1  0.03919340  0.24938384  0.97850423  1
  N  N6  1  0.46128152  0.74937800  0.47830536  1
  N  N7  1  0.96081504  0.75061390  0.02151351  1
  H  H8  1  0.43679377  0.24919873  0.28852499  1
  H  H9  1  0.32575102  0.17647662  0.43836499  1
  H  H10  1  0.32558729  0.32442147  0.43967193  1
  H  H11  1  0.60830947  0.18105840  0.49847260  1
  H  H12  1  0.60914686  0.31942806  0.49947112  1
  H  H13  1  0.50794816  0.25154006  0.64425493  1
  H  H14  1  0.93878520  0.25104702  0.21226125  1
  H  H15  1  0.82653222  0.17580458  0.06190770  1
  H  H16  1  0.82683288  0.32376724  0.06303066  1
  H  H17  1  0.10968730  0.18054360  0.00045183  1
  H  H18  1  0.10900218  0.31892624  0.00133166  1
  H  H19  1  0.00772014  0.24846512  0.85615889  1
  H  H20  1  0.56320429  0.75080537  0.71148820  1
  H  H21  1  0.67440941  0.67558184  0.56034059  1
  H  H22  1  0.67424755  0.82352633  0.56164709  1
  H  H23  1  0.39168866  0.81894528  0.50154075  1
  H  H24  1  0.39085109  0.68057646  0.50054165  1
  H  H25  1  0.49204906  0.74846409  0.35575642  1
  H  H26  1  0.06121889  0.74895678  0.78775426  1
  H  H27  1  0.17347263  0.82419756  0.93810930  1
  H  H28  1  0.17317513  0.67623485  0.93697957  1
  H  H29  1  0.89031727  0.81945281  0.99956897  1
  H  H30  1  0.89100803  0.68107014  0.99868483  1
  H  H31  1  0.99228993  0.75153167  0.14385743  1
  Ag  Ag32  1  0.50000151  0.00000975  0.00000648  1
  Ag  Ag33  1  0.99998819  0.50000570  0.49998775  1
  Sb  Sb34  1  0.00000015  0.00000388  0.50000894  1
  Sb  Sb35  1  0.49999940  0.50000534  0.99999646  1
  I  I36  1  0.47581567  0.25191614  0.94728744  1
  I  I37  1  0.18789295  0.01267411  0.18335311  1
  I  I38  1  0.68468892  0.00807720  0.31412784  1
  I  I39  1  0.97512218  0.24806303  0.55330064  1
  I  I40  1  0.31531341  0.99192749  0.68588711  1
  I  I41  1  0.81211299  0.98732722  0.81666438  1
  I  I42  1  0.52418962  0.74809138  0.05272323  1
  I  I43  1  0.68787190  0.48723168  0.31672369  1
  I  I44  1  0.18479733  0.49204089  0.18579659  1
  I  I45  1  0.02487691  0.75194268  0.44671564  1
  I  I46  1  0.31211402  0.51277127  0.68328185  1
  I  I47  1  0.81520117  0.50796336  0.81420622  1
