# generated using pymatgen
data_Cs2ScNCl6
_symmetry_space_group_name_H-M   'P 1'
_cell_length_a   7.79018571
_cell_length_b   10.76128907
_cell_length_c   7.41044535
_cell_angle_alpha   89.92956849
_cell_angle_beta   104.74394607
_cell_angle_gamma   90.08213077
_symmetry_Int_Tables_number   1
_chemical_formula_structural   Cs2ScNCl6
_chemical_formula_sum   'Cs4 Sc2 N2 Cl12'
_cell_volume   600.77933004
_cell_formula_units_Z   2
loop_
 _symmetry_equiv_pos_site_id
 _symmetry_equiv_pos_as_xyz
  1  'x, y, z'
loop_
 _atom_site_type_symbol
 _atom_site_label
 _atom_site_symmetry_multiplicity
 _atom_site_fract_x
 _atom_site_fract_y
 _atom_site_fract_z
 _atom_site_occupancy
  Cs  Cs0  1  0.54801488  0.27009936  0.47507041  1
  Cs  Cs1  1  0.98640387  0.28541132  0.08811453  1
  Cs  Cs2  1  0.51261711  0.78518396  0.41159650  1
  Cs  Cs3  1  0.95267922  0.77045446  0.02619829  1
  N  N4  1  0.31897380  0.84269688  0.97337426  1
  N  N5  1  0.18183988  0.34248440  0.52630028  1
  Sc  Sc6  1  0.01569133  0.99936555  0.53907633  1
  Sc  Sc7  1  0.48416115  0.49972109  0.96083526  1
  Cl  Cl8  1  0.48325410  0.28007341  0.96783689  1
  Cl  Cl9  1  0.23096219  0.03757129  0.35864649  1
  Cl  Cl10  1  0.77201398  0.02812752  0.26701960  1
  Cl  Cl11  1  0.04722863  0.24272334  0.62866552  1
  Cl  Cl12  1  0.29930549  0.98358020  0.85178058  1
  Cl  Cl13  1  0.82059661  0.02930574  0.74736631  1
  Cl  Cl14  1  0.45364591  0.74324728  0.87137073  1
  Cl  Cl15  1  0.72746958  0.52843144  0.23324725  1
  Cl  Cl16  1  0.26823017  0.53770301  0.14015219  1
  Cl  Cl17  1  0.01616173  0.77972514  0.53309491  1
  Cl  Cl18  1  0.20110063  0.48343824  0.64721215  1
  Cl  Cl19  1  0.67959511  0.52988071  0.75283031  1
