# generated using pymatgen
data_Cs2AlNCl6
_symmetry_space_group_name_H-M   'P 1'
_cell_length_a   7.71877859
_cell_length_b   10.80093297
_cell_length_c   7.34528227
_cell_angle_alpha   90.00372758
_cell_angle_beta   85.98259518
_cell_angle_gamma   90.01550274
_symmetry_Int_Tables_number   1
_chemical_formula_structural   Cs2AlNCl6
_chemical_formula_sum   'Cs4 Al2 N2 Cl12'
_cell_volume   610.87151218
_cell_formula_units_Z   2
loop_
 _symmetry_equiv_pos_site_id
 _symmetry_equiv_pos_as_xyz
  1  'x, y, z'
loop_
 _atom_site_type_symbol
 _atom_site_label
 _atom_site_symmetry_multiplicity
 _atom_site_fract_x
 _atom_site_fract_y
 _atom_site_fract_z
 _atom_site_occupancy
  Cs  Cs0  1  0.53039737  0.23168036  0.54996366  1
  Cs  Cs1  1  0.02631262  0.26914830  0.99313686  1
  Cs  Cs2  1  0.47362039  0.76932971  0.50698609  1
  Cs  Cs3  1  0.96986017  0.73165161  0.95000714  1
  N  N4  1  0.48159541  0.93994179  0.85932074  1
  N  N5  1  0.01826497  0.43950868  0.64075733  1
  Al  Al6  1  0.96510833  0.95713700  0.43446780  1
  Al  Al7  1  0.53489469  0.45721703  0.06548108  1
  Cl  Cl8  1  0.51732305  0.25702780  0.04915246  1
  Cl  Cl9  1  0.21028913  0.02881391  0.32641985  1
  Cl  Cl10  1  0.77422749  0.00179299  0.24173819  1
  Cl  Cl11  1  0.04501701  0.30485733  0.49898361  1
  Cl  Cl12  1  0.26640218  0.99011101  0.81776165  1
  Cl  Cl13  1  0.86185854  0.01899149  0.69873178  1
  Cl  Cl14  1  0.45518074  0.80511765  0.00077390  1
  Cl  Cl15  1  0.72579366  0.50186436  0.25823114  1
  Cl  Cl16  1  0.28979153  0.52894387  0.17352749  1
  Cl  Cl17  1  0.98257977  0.75694698  0.45074302  1
  Cl  Cl18  1  0.23334499  0.48999093  0.68238069  1
  Cl  Cl19  1  0.63808331  0.51915154  0.80122432  1
