# generated using pymatgen
data_CdH12PbC2(I3N)2
_symmetry_space_group_name_H-M   'P 1'
_cell_length_a   8.46009730
_cell_length_b   12.31722800
_cell_length_c   8.36365281
_cell_angle_alpha   89.47240335
_cell_angle_beta   90.01024470
_cell_angle_gamma   90.00424093
_symmetry_Int_Tables_number   1
_chemical_formula_structural   CdH12PbC2(I3N)2
_chemical_formula_sum   'Cd2 H24 Pb2 C4 I12 N4'
_cell_volume   871.49703563
_cell_formula_units_Z   2
loop_
 _symmetry_equiv_pos_site_id
 _symmetry_equiv_pos_as_xyz
  1  'x, y, z'
loop_
 _atom_site_type_symbol
 _atom_site_label
 _atom_site_symmetry_multiplicity
 _atom_site_fract_x
 _atom_site_fract_y
 _atom_site_fract_z
 _atom_site_occupancy
  C  C0  1  0.39480581  0.25020805  0.41448973  1
  C  C1  1  0.89610065  0.25001438  0.08674581  1
  C  C2  1  0.60519158  0.74979446  0.58552540  1
  C  C3  1  0.10390698  0.74998593  0.91326867  1
  N  N4  1  0.53516451  0.24986247  0.52074524  1
  N  N5  1  0.03572710  0.25020979  0.97957078  1
  N  N6  1  0.46483184  0.75014208  0.47927139  1
  N  N7  1  0.96428206  0.74978726  0.02044570  1
  H  H8  1  0.43499407  0.25024622  0.29005158  1
  H  H9  1  0.32526678  0.17711987  0.43889621  1
  H  H10  1  0.32484246  0.32295610  0.43799955  1
  H  H11  1  0.60404143  0.18172170  0.49813297  1
  H  H12  1  0.60445246  0.31823730  0.49824323  1
  H  H13  1  0.50482167  0.24904145  0.64180358  1
  H  H14  1  0.93717266  0.25003449  0.21089519  1
  H  H15  1  0.82583823  0.17730388  0.06383444  1
  H  H16  1  0.82653168  0.32316159  0.06275390  1
  H  H17  1  0.10502761  0.18177460  0.00174061  1
  H  H18  1  0.10487167  0.31829734  0.00170651  1
  H  H19  1  0.00464351  0.25099387  0.85871573  1
  H  H20  1  0.56500480  0.74975807  0.70996403  1
  H  H21  1  0.67515364  0.67704658  0.56201584  1
  H  H22  1  0.67473175  0.82288283  0.56111753  1
  H  H23  1  0.39595557  0.81828118  0.50188463  1
  H  H24  1  0.39554367  0.68176526  0.50177385  1
  H  H25  1  0.49517362  0.75096227  0.35821303  1
  H  H26  1  0.06283355  0.74996818  0.78911978  1
  H  H27  1  0.17416942  0.82269612  0.93618318  1
  H  H28  1  0.17347643  0.67683844  0.93725623  1
  H  H29  1  0.89497873  0.81822121  0.99827874  1
  H  H30  1  0.89513953  0.68169865  0.99830935  1
  H  H31  1  0.99536700  0.74900258  0.14130053  1
  Cd  Cd32  1  0.49999972  0.00001127  0.00000822  1
  Cd  Cd33  1  0.99998404  0.50000290  0.49998368  1
  Pb  Pb34  1  0.00000067  0.00000398  0.50001266  1
  Pb  Pb35  1  0.49999852  0.50001289  0.99998437  1
  I  I36  1  0.47238065  0.24392810  0.94100105  1
  I  I37  1  0.18873139  0.01180972  0.16773391  1
  I  I38  1  0.66920342  0.01605929  0.31482641  1
  I  I39  1  0.97176348  0.25608442  0.55959771  1
  I  I40  1  0.33080640  0.98394884  0.68518698  1
  I  I41  1  0.81127519  0.98819028  0.83228618  1
  I  I42  1  0.52762532  0.75608640  0.05901563  1
  I  I43  1  0.68873236  0.48799061  0.33219540  1
  I  I44  1  0.16933506  0.48413430  0.18521611  1
  I  I45  1  0.02823304  0.74392104  0.44041720  1
  I  I46  1  0.31124636  0.51201086  0.66779634  1
  I  I47  1  0.83066563  0.51586917  0.81478183  1
