# generated using pymatgen
data_Cs2MgHgCl6
_symmetry_space_group_name_H-M   'P 1'
_cell_length_a   7.37634847
_cell_length_b   10.42715060
_cell_length_c   7.37636149
_cell_angle_alpha   89.99682959
_cell_angle_beta   90.00000653
_cell_angle_gamma   89.99995671
_symmetry_Int_Tables_number   1
_chemical_formula_structural   Cs2MgHgCl6
_chemical_formula_sum   'Cs4 Mg2 Hg2 Cl12'
_cell_volume   567.34765275
_cell_formula_units_Z   2
loop_
 _symmetry_equiv_pos_site_id
 _symmetry_equiv_pos_as_xyz
  1  'x, y, z'
loop_
 _atom_site_type_symbol
 _atom_site_label
 _atom_site_symmetry_multiplicity
 _atom_site_fract_x
 _atom_site_fract_y
 _atom_site_fract_z
 _atom_site_occupancy
  Cs  Cs0  1  0.49979255  0.24975107  0.49982209  1
  Cs  Cs1  1  0.99978862  0.25016889  0.00016252  1
  Cs  Cs2  1  0.50020186  0.74975050  0.50016195  1
  Cs  Cs3  1  0.00020633  0.75016832  0.99981454  1
  Mg  Mg4  1  0.49999869  0.99995686  0.99982472  1
  Mg  Mg5  1  0.99999640  0.49996497  0.50015381  1
  Hg  Hg6  1  0.99999800  0.99996634  0.49980602  1
  Hg  Hg7  1  0.49999542  0.49995754  0.00017208  1
  Cl  Cl8  1  0.49978803  0.24149650  0.99923269  1
  Cl  Cl9  1  0.25814075  0.00027798  0.24103772  1
  Cl  Cl10  1  0.74105616  0.00023245  0.24183622  1
  Cl  Cl11  1  0.99980167  0.25842750  0.50074747  1
  Cl  Cl12  1  0.25883654  0.99963062  0.75802554  1
  Cl  Cl13  1  0.74195394  0.99970456  0.75882037  1
  Cl  Cl14  1  0.50020616  0.75842242  0.00071802  1
  Cl  Cl15  1  0.75813386  0.49964257  0.25894642  1
  Cl  Cl16  1  0.24105008  0.49969588  0.25813739  1
  Cl  Cl17  1  0.00019260  0.74150099  0.49925385  1
  Cl  Cl18  1  0.24195998  0.50022294  0.74115087  1
  Cl  Cl19  1  0.75884774  0.50028540  0.74196454  1
