# generated using pymatgen
data_Cs2MgPtCl6
_symmetry_space_group_name_H-M   'P 1'
_cell_length_a   7.04611125
_cell_length_b   11.56713107
_cell_length_c   7.04618162
_cell_angle_alpha   90.03799585
_cell_angle_beta   90.00400694
_cell_angle_gamma   90.00141712
_symmetry_Int_Tables_number   1
_chemical_formula_structural   Cs2MgPtCl6
_chemical_formula_sum   'Cs4 Mg2 Pt2 Cl12'
_cell_volume   574.28687293
_cell_formula_units_Z   2
loop_
 _symmetry_equiv_pos_site_id
 _symmetry_equiv_pos_as_xyz
  1  'x, y, z'
loop_
 _atom_site_type_symbol
 _atom_site_label
 _atom_site_symmetry_multiplicity
 _atom_site_fract_x
 _atom_site_fract_y
 _atom_site_fract_z
 _atom_site_occupancy
  Cs  Cs0  1  0.50018482  0.25024005  0.50031853  1
  Cs  Cs1  1  0.00020284  0.24985100  0.99965672  1
  Cs  Cs2  1  0.49980648  0.75006115  0.49973908  1
  Cs  Cs3  1  0.99978840  0.74969825  0.00024663  1
  Mg  Mg4  1  0.49999572  0.99995924  0.00023076  1
  Mg  Mg5  1  0.00000001  0.49995521  0.49974961  1
  Pt  Pt6  1  0.99999881  0.99995903  0.50006708  1
  Pt  Pt7  1  0.49999683  0.49995831  0.99991081  1
  Cl  Cl8  1  0.50020044  0.20010020  0.00053734  1
  Cl  Cl9  1  0.23319808  0.99981575  0.26732046  1
  Cl  Cl10  1  0.76727084  0.99984853  0.26682357  1
  Cl  Cl11  1  0.00017720  0.29981639  0.49944216  1
  Cl  Cl12  1  0.23274527  0.00013321  0.73325862  1
  Cl  Cl13  1  0.76678210  0.00005470  0.73276111  1
  Cl  Cl14  1  0.49979892  0.79981998  0.99948705  1
  Cl  Cl15  1  0.73323220  0.50010564  0.23267927  1
  Cl  Cl16  1  0.26727774  0.50008013  0.23315173  1
  Cl  Cl17  1  0.99981265  0.70009557  0.50049779  1
  Cl  Cl18  1  0.26674608  0.49987668  0.76719175  1
  Cl  Cl19  1  0.73272995  0.49979532  0.76671873  1
