# generated using pymatgen
data_Cs2BaMgCl6
_symmetry_space_group_name_H-M   'P 1'
_cell_length_a   7.73813534
_cell_length_b   10.94410538
_cell_length_c   7.73815770
_cell_angle_alpha   89.99436719
_cell_angle_beta   89.99999621
_cell_angle_gamma   89.99991974
_symmetry_Int_Tables_number   1
_chemical_formula_structural   Cs2BaMgCl6
_chemical_formula_sum   'Cs4 Ba2 Mg2 Cl12'
_cell_volume   655.32111560
_cell_formula_units_Z   2
loop_
 _symmetry_equiv_pos_site_id
 _symmetry_equiv_pos_as_xyz
  1  'x, y, z'
loop_
 _atom_site_type_symbol
 _atom_site_label
 _atom_site_symmetry_multiplicity
 _atom_site_fract_x
 _atom_site_fract_y
 _atom_site_fract_z
 _atom_site_occupancy
  Cs  Cs0  1  0.49976344  0.24971447  0.49980129  1
  Cs  Cs1  1  0.99975911  0.25020701  0.00018407  1
  Cs  Cs2  1  0.50023077  0.74971378  0.50019321  1
  Cs  Cs3  1  0.00023639  0.75020617  0.99978297  1
  Mg  Mg4  1  0.49999846  0.99995681  0.99983795  1
  Mg  Mg5  1  0.99999667  0.49996490  0.50014064  1
  Ba  Ba6  1  0.99999818  0.99996693  0.49979815  1
  Ba  Ba7  1  0.49999546  0.49995768  0.00018016  1
  Cl  Cl8  1  0.49978255  0.22795296  0.99916964  1
  Cl  Cl9  1  0.27167753  0.00031223  0.22742770  1
  Cl  Cl10  1  0.72744273  0.00026445  0.22830402  1
  Cl  Cl11  1  0.99979723  0.27196980  0.50081015  1
  Cl  Cl12  1  0.27241347  0.99958849  0.77153046  1
  Cl  Cl13  1  0.72845347  0.99967780  0.77240189  1
  Cl  Cl14  1  0.50021124  0.77196269  0.00074612  1
  Cl  Cl15  1  0.77166992  0.49960779  0.27255635  1
  Cl  Cl16  1  0.22743533  0.49966434  0.27166939  1
  Cl  Cl17  1  0.00019726  0.72796007  0.49922490  1
  Cl  Cl18  1  0.22846012  0.50024987  0.72756852  1
  Cl  Cl19  1  0.77242604  0.50032608  0.72846123  1
