# generated using pymatgen
data_Cs2MgSnCl6
_symmetry_space_group_name_H-M   'P 1'
_cell_length_a   7.52000156
_cell_length_b   10.63489044
_cell_length_c   7.52000564
_cell_angle_alpha   89.99432689
_cell_angle_beta   90.00000527
_cell_angle_gamma   89.99993951
_symmetry_Int_Tables_number   1
_chemical_formula_structural   Cs2MgSnCl6
_chemical_formula_sum   'Cs4 Mg2 Sn2 Cl12'
_cell_volume   601.40788139
_cell_formula_units_Z   2
loop_
 _symmetry_equiv_pos_site_id
 _symmetry_equiv_pos_as_xyz
  1  'x, y, z'
loop_
 _atom_site_type_symbol
 _atom_site_label
 _atom_site_symmetry_multiplicity
 _atom_site_fract_x
 _atom_site_fract_y
 _atom_site_fract_z
 _atom_site_occupancy
  Cs  Cs0  1  0.49978747  0.24974043  0.49981874  1
  Cs  Cs1  1  0.99978368  0.25018016  0.00016617  1
  Cs  Cs2  1  0.50020678  0.74973964  0.50016425  1
  Cs  Cs3  1  0.00021150  0.75017946  0.99981242  1
  Mg  Mg4  1  0.49999835  0.99995695  0.99984308  1
  Mg  Mg5  1  0.99999655  0.49996438  0.50013538  1
  Sn  Sn6  1  0.99999780  0.99996523  0.49982873  1
  Sn  Sn7  1  0.49999584  0.49995751  0.00014948  1
  Cl  Cl8  1  0.49979584  0.23650125  0.99922948  1
  Cl  Cl9  1  0.26314647  0.00028335  0.23601644  1
  Cl  Cl10  1  0.73604171  0.00024243  0.23682367  1
  Cl  Cl11  1  0.99980939  0.26342319  0.50075052  1
  Cl  Cl12  1  0.26384069  0.99961923  0.76301411  1
  Cl  Cl13  1  0.73695827  0.99969917  0.76381769  1
  Cl  Cl14  1  0.50019883  0.76341668  0.00069999  1
  Cl  Cl15  1  0.76313930  0.49963702  0.26396802  1
  Cl  Cl16  1  0.23603552  0.49968584  0.26314936  1
  Cl  Cl17  1  0.00018498  0.73650737  0.49927199  1
  Cl  Cl18  1  0.23696453  0.50022827  0.73615315  1
  Cl  Cl19  1  0.76385188  0.50029677  0.73697613  1
