# generated using pymatgen
data_Cs2SrMgCl6
_symmetry_space_group_name_H-M   'P 1'
_cell_length_a   7.55979346
_cell_length_b   10.69095872
_cell_length_c   7.55978297
_cell_angle_alpha   89.99669705
_cell_angle_beta   89.99999651
_cell_angle_gamma   89.99995035
_symmetry_Int_Tables_number   1
_chemical_formula_structural   Cs2SrMgCl6
_chemical_formula_sum   'Cs4 Sr2 Mg2 Cl12'
_cell_volume   610.99254302
_cell_formula_units_Z   2
loop_
 _symmetry_equiv_pos_site_id
 _symmetry_equiv_pos_as_xyz
  1  'x, y, z'
loop_
 _atom_site_type_symbol
 _atom_site_label
 _atom_site_symmetry_multiplicity
 _atom_site_fract_x
 _atom_site_fract_y
 _atom_site_fract_z
 _atom_site_occupancy
  Cs  Cs0  1  0.49978767  0.24973933  0.49982422  1
  Cs  Cs1  1  0.99978364  0.25018124  0.00016066  1
  Cs  Cs2  1  0.50020679  0.74973861  0.50016863  1
  Cs  Cs3  1  0.00021171  0.75018080  0.99980804  1
  Mg  Mg4  1  0.49999839  0.99995732  0.99984767  1
  Mg  Mg5  1  0.99999672  0.49996455  0.50013073  1
  Sr  Sr6  1  0.99999800  0.99996553  0.49983017  1
  Sr  Sr7  1  0.49999594  0.49995786  0.00014804  1
  Cl  Cl8  1  0.49980008  0.23460044  0.99922353  1
  Cl  Cl9  1  0.26503847  0.00028977  0.23411658  1
  Cl  Cl10  1  0.73414466  0.00024937  0.23492898  1
  Cl  Cl11  1  0.99981343  0.26532312  0.50075539  1
  Cl  Cl12  1  0.26574504  0.99961207  0.76491072  1
  Cl  Cl13  1  0.73505899  0.99969308  0.76571898  1
  Cl  Cl14  1  0.50019411  0.76531727  0.00070494  1
  Cl  Cl15  1  0.76503113  0.49963092  0.26586857  1
  Cl  Cl16  1  0.23413859  0.49967895  0.26504424  1
  Cl  Cl17  1  0.00018072  0.73460615  0.49926714  1
  Cl  Cl18  1  0.23506523  0.50023453  0.73425169  1
  Cl  Cl19  1  0.76575608  0.50030342  0.73507989  1
