# generated using pymatgen
data_Cs2MgZnCl6
_symmetry_space_group_name_H-M   'P 1'
_cell_length_a   7.15139974
_cell_length_b   10.11260141
_cell_length_c   7.15140808
_cell_angle_alpha   89.99949499
_cell_angle_beta   90.00002631
_cell_angle_gamma   89.99999657
_symmetry_Int_Tables_number   1
_chemical_formula_structural   Cs2MgZnCl6
_chemical_formula_sum   'Cs4 Mg2 Zn2 Cl12'
_cell_volume   517.18450475
_cell_formula_units_Z   2
loop_
 _symmetry_equiv_pos_site_id
 _symmetry_equiv_pos_as_xyz
  1  'x, y, z'
loop_
 _atom_site_type_symbol
 _atom_site_label
 _atom_site_symmetry_multiplicity
 _atom_site_fract_x
 _atom_site_fract_y
 _atom_site_fract_z
 _atom_site_occupancy
  Cs  Cs0  1  0.49979269  0.24976557  0.49981647  1
  Cs  Cs1  1  0.99978867  0.25015481  0.00016750  1
  Cs  Cs2  1  0.50020162  0.74976495  0.50015954  1
  Cs  Cs3  1  0.00020620  0.75015425  0.99981640  1
  Mg  Mg4  1  0.49999865  0.99995714  0.99982844  1
  Mg  Mg5  1  0.99999647  0.49996496  0.50015021  1
  Zn  Zn6  1  0.99999787  0.99996456  0.49982835  1
  Zn  Zn7  1  0.49999574  0.49995576  0.00015110  1
  Cl  Cl8  1  0.49980638  0.25139897  0.99930374  1
  Cl  Cl9  1  0.24817614  0.00025846  0.25105369  1
  Cl  Cl10  1  0.75108312  0.00020869  0.25178909  1
  Cl  Cl11  1  0.99981920  0.24852655  0.50067631  1
  Cl  Cl12  1  0.24884109  0.99966162  0.74808047  1
  Cl  Cl13  1  0.75188690  0.99971756  0.74881306  1
  Cl  Cl14  1  0.50018767  0.74852269  0.00067579  1
  Cl  Cl15  1  0.74816981  0.49966199  0.24893084  1
  Cl  Cl16  1  0.25107759  0.49971927  0.24818423  1
  Cl  Cl17  1  0.00017529  0.75140236  0.49929630  1
  Cl  Cl18  1  0.25189289  0.50020929  0.75115857  1
  Cl  Cl19  1  0.74885139  0.50025487  0.75190872  1
