# generated using pymatgen
data_Cs2CaMgCl6
_symmetry_space_group_name_H-M   'P 1'
_cell_length_a   7.41714020
_cell_length_b   10.48820423
_cell_length_c   7.41713410
_cell_angle_alpha   89.99790358
_cell_angle_beta   89.99998923
_cell_angle_gamma   89.99994409
_symmetry_Int_Tables_number   1
_chemical_formula_structural   Cs2CaMgCl6
_chemical_formula_sum   'Cs4 Ca2 Mg2 Cl12'
_cell_volume   576.99726494
_cell_formula_units_Z   2
loop_
 _symmetry_equiv_pos_site_id
 _symmetry_equiv_pos_as_xyz
  1  'x, y, z'
loop_
 _atom_site_type_symbol
 _atom_site_label
 _atom_site_symmetry_multiplicity
 _atom_site_fract_x
 _atom_site_fract_y
 _atom_site_fract_z
 _atom_site_occupancy
  Cs  Cs0  1  0.49981683  0.24977676  0.49985094  1
  Cs  Cs1  1  0.99981427  0.25014393  0.00013276  1
  Cs  Cs2  1  0.50017694  0.74977564  0.50013792  1
  Cs  Cs3  1  0.00018103  0.75014377  0.99983943  1
  Mg  Mg4  1  0.49999809  0.99995800  0.99986248  1
  Mg  Mg5  1  0.99999700  0.49996406  0.50011616  1
  Ca  Ca6  1  0.99999734  0.99996437  0.49986032  1
  Ca  Ca7  1  0.49999664  0.49995850  0.00011801  1
  Cl  Cl8  1  0.49982159  0.24013635  0.99928775  1
  Cl  Cl9  1  0.25949349  0.00026048  0.23970895  1
  Cl  Cl10  1  0.73975007  0.00023073  0.24045840  1
  Cl  Cl11  1  0.99983389  0.25978680  0.50069301  1
  Cl  Cl12  1  0.26017393  0.99964274  0.75938733  1
  Cl  Cl13  1  0.74056911  0.99971131  0.76013458  1
  Cl  Cl14  1  0.50017345  0.75978203  0.00065487  1
  Cl  Cl15  1  0.75948649  0.49965958  0.26027516  1
  Cl  Cl16  1  0.23974651  0.49969736  0.25951383  1
  Cl  Cl17  1  0.00015988  0.74014115  0.49931885  1
  Cl  Cl18  1  0.24057566  0.50021609  0.73983690  1
  Cl  Cl19  1  0.76018315  0.50027466  0.74060118  1
