# generated using pymatgen
data_CdHgH12C2(I3N)2
_symmetry_space_group_name_H-M   'P 1'
_cell_length_a   7.58830046
_cell_length_b   13.14993707
_cell_length_c   8.71400170
_cell_angle_alpha   89.90132556
_cell_angle_beta   90.00380819
_cell_angle_gamma   89.99683640
_symmetry_Int_Tables_number   1
_chemical_formula_structural   CdHgH12C2(I3N)2
_chemical_formula_sum   'Cd2 Hg2 H24 C4 I12 N4'
_cell_volume   869.53123566
_cell_formula_units_Z   2
loop_
 _symmetry_equiv_pos_site_id
 _symmetry_equiv_pos_as_xyz
  1  'x, y, z'
loop_
 _atom_site_type_symbol
 _atom_site_label
 _atom_site_symmetry_multiplicity
 _atom_site_fract_x
 _atom_site_fract_y
 _atom_site_fract_z
 _atom_site_occupancy
  C  C0  1  0.41620202  0.24974406  0.36838771  1
  C  C1  1  0.91892399  0.24927893  0.13037876  1
  C  C2  1  0.58105958  0.74926888  0.63032864  1
  C  C3  1  0.08378389  0.74975275  0.86834201  1
  N  N4  1  0.51338120  0.26386796  0.51458802  1
  N  N5  1  0.01709544  0.26129789  0.98415457  1
  N  N6  1  0.48282192  0.76139175  0.48414368  1
  N  N7  1  0.98664020  0.76377835  0.01457088  1
  H  H8  1  0.51052273  0.25196771  0.27333287  1
  H  H9  1  0.34835089  0.17631075  0.37129938  1
  H  H10  1  0.32176789  0.31225887  0.35611783  1
  H  H11  1  0.61530898  0.21179293  0.52692364  1
  H  H12  1  0.57044578  0.33592784  0.51600182  1
  H  H13  1  0.43411988  0.25659601  0.61137359  1
  H  H14  1  0.01275241  0.25153150  0.22577725  1
  H  H15  1  0.84967804  0.17627641  0.12890245  1
  H  H16  1  0.82573270  0.31250876  0.14094680  1
  H  H17  1  0.11760762  0.20809875  0.97397298  1
  H  H18  1  0.07550077  0.33279749  0.98041103  1
  H  H19  1  0.93821126  0.25354239  0.88707790  1
  H  H20  1  0.48730123  0.75163575  0.72576478  1
  H  H21  1  0.65008158  0.67619134  0.62883901  1
  H  H22  1  0.67444905  0.81239765  0.64085015  1
  H  H23  1  0.42463926  0.83295754  0.48043498  1
  H  H24  1  0.38212322  0.70831266  0.47399426  1
  H  H25  1  0.56161117  0.75354689  0.38702716  1
  H  H26  1  0.98938980  0.75185680  0.77331902  1
  H  H27  1  0.17797926  0.81236976  0.85602218  1
  H  H28  1  0.15189247  0.67639203  0.87124414  1
  H  H29  1  0.92935000  0.83577856  0.01600674  1
  H  H30  1  0.88489807  0.71159317  0.02693180  1
  H  H31  1  0.06598191  0.75658318  0.11132920  1
  Cd  Cd32  1  0.55567637  0.94999913  0.07695545  1
  Cd  Cd33  1  0.94445348  0.45003416  0.57701779  1
  Hg  Hg34  1  0.05430953  0.94879217  0.43483212  1
  Hg  Hg35  1  0.44572020  0.44880298  0.93489868  1
  I  I36  1  0.49182927  0.23652994  0.91261049  1
  I  I37  1  0.20683262  0.01699622  0.13214461  1
  I  I38  1  0.70512972  0.01784074  0.36642235  1
  I  I39  1  0.98604047  0.23906875  0.58610929  1
  I  I40  1  0.29975132  0.99475092  0.65460732  1
  I  I41  1  0.79292550  0.99223499  0.84691303  1
  I  I42  1  0.51396389  0.73905015  0.08609694  1
  I  I43  1  0.70714047  0.49226286  0.34697504  1
  I  I44  1  0.20028057  0.49473765  0.15465681  1
  I  I45  1  0.00819204  0.73652263  0.41260000  1
  I  I46  1  0.29326229  0.51702833  0.63218395  1
  I  I47  1  0.79491179  0.51782134  0.86647748  1
