# generated using pymatgen
data_Cs2AlTlCl6
_symmetry_space_group_name_H-M   'P 1'
_cell_length_a   7.62872685
_cell_length_b   10.78354140
_cell_length_c   7.62870824
_cell_angle_alpha   89.99033589
_cell_angle_beta   90.00001933
_cell_angle_gamma   89.99972651
_symmetry_Int_Tables_number   1
_chemical_formula_structural   Cs2AlTlCl6
_chemical_formula_sum   'Cs4 Al2 Tl2 Cl12'
_cell_volume   627.57332370
_cell_formula_units_Z   2
loop_
 _symmetry_equiv_pos_site_id
 _symmetry_equiv_pos_as_xyz
  1  'x, y, z'
loop_
 _atom_site_type_symbol
 _atom_site_label
 _atom_site_symmetry_multiplicity
 _atom_site_fract_x
 _atom_site_fract_y
 _atom_site_fract_z
 _atom_site_occupancy
  Cs  Cs0  1  0.49985260  0.24983656  0.49985330  1
  Cs  Cs1  1  0.99984942  0.25008179  0.00013043  1
  Cs  Cs2  1  0.50014200  0.74983817  0.50012108  1
  Cs  Cs3  1  0.00014605  0.75008351  0.99985756  1
  Al  Al4  1  0.49999798  0.99996063  0.99987969  1
  Al  Al5  1  0.99999660  0.49996384  0.50009794  1
  Tl  Tl6  1  0.99999819  0.99996561  0.49982363  1
  Tl  Tl7  1  0.49999556  0.49996044  0.00015166  1
  Cl  Cl8  1  0.49988888  0.21746804  0.99945819  1
  Cl  Cl9  1  0.28231001  0.00012718  0.21712070  1
  Cl  Cl10  1  0.71718711  0.00015687  0.21762001  1
  Cl  Cl11  1  0.99989394  0.28245509  0.50052285  1
  Cl  Cl12  1  0.28276639  0.99973950  0.78220358  1
  Cl  Cl13  1  0.71772492  0.99981648  0.78269985  1
  Cl  Cl14  1  0.50010806  0.78245274  0.00037037  1
  Cl  Cl15  1  0.78230458  0.49979336  0.28286095  1
  Cl  Cl16  1  0.21718277  0.49976562  0.28235564  1
  Cl  Cl17  1  0.00009899  0.71747102  0.49960761  1
  Cl  Cl18  1  0.21772922  0.50010715  0.71727338  1
  Cl  Cl19  1  0.78277208  0.50018072  0.71778041  1
