# generated using pymatgen
data_Cs2AlInCl6
_symmetry_space_group_name_H-M   'P 1'
_cell_length_a   7.59296715
_cell_length_b   10.73211702
_cell_length_c   7.59300182
_cell_angle_alpha   89.99131436
_cell_angle_beta   90.00001901
_cell_angle_gamma   89.99985904
_symmetry_Int_Tables_number   1
_chemical_formula_structural   Cs2AlInCl6
_chemical_formula_sum   'Cs4 Al2 In2 Cl12'
_cell_volume   618.74317206
_cell_formula_units_Z   2
loop_
 _symmetry_equiv_pos_site_id
 _symmetry_equiv_pos_as_xyz
  1  'x, y, z'
loop_
 _atom_site_type_symbol
 _atom_site_label
 _atom_site_symmetry_multiplicity
 _atom_site_fract_x
 _atom_site_fract_y
 _atom_site_fract_z
 _atom_site_occupancy
  Cs  Cs0  1  0.49988723  0.24988095  0.49988419  1
  Cs  Cs1  1  0.99988501  0.25003895  0.00009909  1
  Cs  Cs2  1  0.50010712  0.74988196  0.50008632  1
  Cs  Cs3  1  0.00011102  0.75004018  0.99989242  1
  Al  Al4  1  0.49999712  0.99996099  0.99988636  1
  Al  Al5  1  0.99999731  0.49996269  0.50009125  1
  In  In6  1  0.99999740  0.99996522  0.49982803  1
  In  In7  1  0.49999657  0.49996110  0.00014666  1
  Cl  Cl8  1  0.49991196  0.21899609  0.99950655  1
  Cl  Cl9  1  0.28077959  0.00011416  0.21867776  1
  Cl  Cl10  1  0.71874655  0.00014478  0.21914576  1
  Cl  Cl11  1  0.99991656  0.28092628  0.50047436  1
  Cl  Cl12  1  0.28122025  0.99976292  0.78068571  1
  Cl  Cl13  1  0.71923866  0.99982077  0.78115105  1
  Cl  Cl14  1  0.50008397  0.78092541  0.00034185  1
  Cl  Cl15  1  0.78077679  0.49980584  0.28130401  1
  Cl  Cl16  1  0.21874498  0.49977794  0.28083091  1
  Cl  Cl17  1  0.00007635  0.71899728  0.49963549  1
  Cl  Cl18  1  0.21924410  0.50010325  0.71882267  1
  Cl  Cl19  1  0.78122682  0.50015757  0.71929836  1
