# generated using pymatgen
data_Cs2AlAgCl6
_symmetry_space_group_name_H-M   'P 1'
_cell_length_a   7.29156875
_cell_length_b   10.30835465
_cell_length_c   7.29158796
_cell_angle_alpha   89.99113094
_cell_angle_beta   90.00022557
_cell_angle_gamma   89.99989935
_symmetry_Int_Tables_number   1
_chemical_formula_structural   Cs2AlAgCl6
_chemical_formula_sum   'Cs4 Al2 Ag2 Cl12'
_cell_volume   548.06547006
_cell_formula_units_Z   2
loop_
 _symmetry_equiv_pos_site_id
 _symmetry_equiv_pos_as_xyz
  1  'x, y, z'
loop_
 _atom_site_type_symbol
 _atom_site_label
 _atom_site_symmetry_multiplicity
 _atom_site_fract_x
 _atom_site_fract_y
 _atom_site_fract_z
 _atom_site_occupancy
  Cs  Cs0  1  0.49990181  0.24991878  0.49988219  1
  Cs  Cs1  1  0.99989922  0.25000153  0.00010124  1
  Cs  Cs2  1  0.50009286  0.74991797  0.50008089  1
  Cs  Cs3  1  0.00009609  0.75000031  0.99989802  1
  Al  Al4  1  0.49999813  0.99996068  0.99990319  1
  Al  Al5  1  0.99999633  0.49996201  0.50007436  1
  Ag  Ag6  1  0.99999905  0.99996731  0.49982580  1
  Ag  Ag7  1  0.49999497  0.49996449  0.00014952  1
  Cl  Cl8  1  0.49989816  0.22918979  0.99962517  1
  Cl  Cl9  1  0.27059814  0.00005248  0.22901890  1
  Cl  Cl10  1  0.72907239  0.00008744  0.22934808  1
  Cl  Cl11  1  0.99990298  0.27073425  0.50035588  1
  Cl  Cl12  1  0.27090338  0.99982287  0.77052675  1
  Cl  Cl13  1  0.72941574  0.99987797  0.77085438  1
  Cl  Cl14  1  0.50009793  0.77073327  0.00027235  1
  Cl  Cl15  1  0.77059226  0.49986643  0.27095984  1
  Cl  Cl16  1  0.22906749  0.49983467  0.27063039  1
  Cl  Cl17  1  0.00009017  0.72919037  0.49970521  1
  Cl  Cl18  1  0.22941970  0.50004528  0.72912306  1
  Cl  Cl19  1  0.77090856  0.50009643  0.72945359  1
