# generated using pymatgen
data_Cs2AlAsCl6
_symmetry_space_group_name_H-M   'P 1'
_cell_length_a   7.42487242
_cell_length_b   10.89308358
_cell_length_c   8.24883817
_cell_angle_alpha   89.99988756
_cell_angle_beta   89.99533665
_cell_angle_gamma   90.00005542
_symmetry_Int_Tables_number   1
_chemical_formula_structural   Cs2AlAsCl6
_chemical_formula_sum   'Cs4 Al2 As2 Cl12'
_cell_volume   667.16401479
_cell_formula_units_Z   2
loop_
 _symmetry_equiv_pos_site_id
 _symmetry_equiv_pos_as_xyz
  1  'x, y, z'
loop_
 _atom_site_type_symbol
 _atom_site_label
 _atom_site_symmetry_multiplicity
 _atom_site_fract_x
 _atom_site_fract_y
 _atom_site_fract_z
 _atom_site_occupancy
  Cs  Cs0  1  0.49997412  0.24965169  0.47456102  1
  Cs  Cs1  1  0.00002328  0.25029223  0.02541300  1
  Cs  Cs2  1  0.49997252  0.75029184  0.47458130  1
  Cs  Cs3  1  0.00002101  0.74964301  0.02540663  1
  Al  Al4  1  0.50007126  0.99996117  0.89960843  1
  Al  Al5  1  0.99992166  0.49995004  0.60036680  1
  As  As6  1  1.00005021  0.99995648  0.45736100  1
  As  As7  1  0.49994664  0.49995794  0.04261453  1
  Cl  Cl8  1  0.50006956  0.17658781  0.01525840  1
  Cl  Cl9  1  0.23224524  0.99995623  0.26992277  1
  Cl  Cl10  1  0.76773176  0.99995328  0.27008763  1
  Cl  Cl11  1  0.99992603  0.32332880  0.48469754  1
  Cl  Cl12  1  0.26043561  0.99996866  0.74746581  1
  Cl  Cl13  1  0.73971667  0.99996646  0.74744850  1
  Cl  Cl14  1  0.50006681  0.82332471  0.01523538  1
  Cl  Cl15  1  0.73226481  0.49998585  0.22988855  1
  Cl  Cl16  1  0.26775674  0.49998957  0.23005973  1
  Cl  Cl17  1  0.99992448  0.67659473  0.48475997  1
  Cl  Cl18  1  0.23954981  0.49993283  0.75252152  1
  Cl  Cl19  1  0.76027715  0.49993099  0.75253031  1
