# generated using pymatgen
data_Cs2AlGaCl6
_symmetry_space_group_name_H-M   'P 1'
_cell_length_a   7.43993150
_cell_length_b   10.51748853
_cell_length_c   7.43994202
_cell_angle_alpha   89.99285974
_cell_angle_beta   89.99995145
_cell_angle_gamma   89.99988891
_symmetry_Int_Tables_number   1
_chemical_formula_structural   Cs2AlGaCl6
_chemical_formula_sum   'Cs4 Al2 Ga2 Cl12'
_cell_volume   582.17095160
_cell_formula_units_Z   2
loop_
 _symmetry_equiv_pos_site_id
 _symmetry_equiv_pos_as_xyz
  1  'x, y, z'
loop_
 _atom_site_type_symbol
 _atom_site_label
 _atom_site_symmetry_multiplicity
 _atom_site_fract_x
 _atom_site_fract_y
 _atom_site_fract_z
 _atom_site_occupancy
  Cs  Cs0  1  0.49991410  0.24989886  0.49991824  1
  Cs  Cs1  1  0.99991160  0.25002274  0.00006629  1
  Cs  Cs2  1  0.50008093  0.74989819  0.50006899  1
  Cs  Cs3  1  0.00008307  0.75002352  0.99991162  1
  Al  Al4  1  0.49999763  0.99996108  0.99987614  1
  Al  Al5  1  0.99999692  0.49996237  0.50010072  1
  Ga  Ga6  1  -0.00000017  0.99996636  0.49973013  1
  Ga  Ga7  1  0.49999385  0.49996379  0.00024187  1
  Cl  Cl8  1  0.49992091  0.22405394  0.99959494  1
  Cl  Cl9  1  0.27579618  0.00007693  0.22378967  1
  Cl  Cl10  1  0.72383217  0.00011510  0.22415328  1
  Cl  Cl11  1  0.99992503  0.27586723  0.50038574  1
  Cl  Cl12  1  0.27613323  0.99979635  0.77572852  1
  Cl  Cl13  1  0.72422315  0.99985300  0.77609021  1
  Cl  Cl14  1  0.50007387  0.77586652  0.00028929  1
  Cl  Cl15  1  0.77579405  0.49984329  0.27619338  1
  Cl  Cl16  1  0.22383150  0.49980608  0.27582209  1
  Cl  Cl17  1  0.00006949  0.72405463  0.49968793  1
  Cl  Cl18  1  0.22422805  0.50006974  0.72388317  1
  Cl  Cl19  1  0.77613980  0.50012459  0.72425658  1
