# generated using pymatgen
data_CdH12PtC2(I3N)2
_symmetry_space_group_name_H-M   'P 1'
_cell_length_a   8.23808830
_cell_length_b   12.49483704
_cell_length_c   8.11300554
_cell_angle_alpha   87.27220249
_cell_angle_beta   90.00168841
_cell_angle_gamma   90.01735059
_symmetry_Int_Tables_number   1
_chemical_formula_structural   CdH12PtC2(I3N)2
_chemical_formula_sum   'Cd2 H24 Pt2 C4 I12 N4'
_cell_volume   834.15434146
_cell_formula_units_Z   2
loop_
 _symmetry_equiv_pos_site_id
 _symmetry_equiv_pos_as_xyz
  1  'x, y, z'
loop_
 _atom_site_type_symbol
 _atom_site_label
 _atom_site_symmetry_multiplicity
 _atom_site_fract_x
 _atom_site_fract_y
 _atom_site_fract_z
 _atom_site_occupancy
  C  C0  1  0.41131945  0.25490175  0.42095405  1
  C  C1  1  0.91204959  0.24521219  0.07935804  1
  C  C2  1  0.58867815  0.74510269  0.57905564  1
  C  C3  1  0.08795177  0.75479298  0.92065425  1
  N  N4  1  0.55678238  0.24867327  0.52840083  1
  N  N5  1  0.05715499  0.25131819  0.97139538  1
  N  N6  1  0.44321575  0.75133264  0.47160834  1
  N  N7  1  0.94284831  0.74868071  0.02861923  1
  H  H8  1  0.45130802  0.25785435  0.29226036  1
  H  H9  1  0.33619934  0.18390460  0.44737327  1
  H  H10  1  0.34445215  0.32783888  0.44606764  1
  H  H11  1  0.62561824  0.18121142  0.50308334  1
  H  H12  1  0.62985131  0.31543264  0.50688379  1
  H  H13  1  0.52690419  0.24362918  0.65360563  1
  H  H14  1  0.95249695  0.24231823  0.20787674  1
  H  H15  1  0.84495026  0.17229886  0.05457384  1
  H  H16  1  0.83702417  0.31623422  0.05309716  1
  H  H17  1  0.13019191  0.18453693  0.99274610  1
  H  H18  1  0.12620262  0.31877897  0.99641000  1
  H  H19  1  0.02687956  0.25631212  0.84627702  1
  H  H20  1  0.54868976  0.74214968  0.70774914  1
  H  H21  1  0.65554513  0.67216563  0.55394065  1
  H  H22  1  0.66379874  0.81609972  0.55263750  1
  H  H23  1  0.37438013  0.81879485  0.49692618  1
  H  H24  1  0.37014546  0.68457362  0.49312441  1
  H  H25  1  0.47309430  0.75637642  0.34640383  1
  H  H26  1  0.04750269  0.75768835  0.79213616  1
  H  H27  1  0.15504681  0.82770765  0.94544071  1
  H  H28  1  0.16298211  0.68377284  0.94691108  1
  H  H29  1  0.86980614  0.81545978  0.00727278  1
  H  H30  1  0.87380439  0.68121823  0.00360344  1
  H  H31  1  0.97312570  0.74368556  0.15373706  1
  Cd  Cd32  1  0.50001910  0.00000173  0.00000942  1
  Cd  Cd33  1  0.00003011  0.50000094  0.50003081  1
  Pt  Pt34  1  0.99999760  0.00000120  0.50000288  1
  Pt  Pt35  1  0.49999545  0.50000115  0.00000771  1
  I  I36  1  0.48359867  0.21658220  0.95675261  1
  I  I37  1  0.15056816  0.00047032  0.21096935  1
  I  I38  1  0.71525138  0.01648883  0.34901565  1
  I  I39  1  0.98309338  0.28345314  0.54340318  1
  I  I40  1  0.28474053  0.98351516  0.65099454  1
  I  I41  1  0.84943199  0.99953086  0.78904190  1
  I  I42  1  0.51640090  0.78341961  0.04325668  1
  I  I43  1  0.65062683  0.49941970  0.28900773  1
  I  I44  1  0.21525216  0.48356622  0.15100126  1
  I  I45  1  0.01690128  0.71654864  0.45661148  1
  I  I46  1  0.34937600  0.50058351  0.71099587  1
  I  I47  1  0.78473975  0.51643792  0.84901190  1
