# generated using pymatgen
data_Cs2SiPbCl6
_symmetry_space_group_name_H-M   'P 1'
_cell_length_a   7.64652150
_cell_length_b   10.81232244
_cell_length_c   7.64653541
_cell_angle_alpha   89.99712261
_cell_angle_beta   90.00000198
_cell_angle_gamma   89.99997133
_symmetry_Int_Tables_number   1
_chemical_formula_structural   Cs2SiPbCl6
_chemical_formula_sum   'Cs4 Si2 Pb2 Cl12'
_cell_volume   632.18997683
_cell_formula_units_Z   2
loop_
 _symmetry_equiv_pos_site_id
 _symmetry_equiv_pos_as_xyz
  1  'x, y, z'
loop_
 _atom_site_type_symbol
 _atom_site_label
 _atom_site_symmetry_multiplicity
 _atom_site_fract_x
 _atom_site_fract_y
 _atom_site_fract_z
 _atom_site_occupancy
  Cs  Cs0  1  0.49979128  0.24975237  0.49983420  1
  Cs  Cs1  1  0.99978730  0.25016969  0.00015044  1
  Cs  Cs2  1  0.50020316  0.74975176  0.50016443  1
  Cs  Cs3  1  0.00020751  0.75016918  0.99981219  1
  Si  Si4  1  0.49999753  0.99995716  0.99989379  1
  Si  Si5  1  0.99999719  0.49996208  0.50008519  1
  Pb  Pb6  1  0.99999773  0.99996403  0.49985119  1
  Pb  Pb7  1  0.49999621  0.49995727  0.00012718  1
  Cl  Cl8  1  0.49980069  0.23698409  0.99925144  1
  Cl  Cl9  1  0.26267328  0.00028929  0.23649840  1
  Cl  Cl10  1  0.73651906  0.00024481  0.23730227  1
  Cl  Cl11  1  0.99981394  0.26294319  0.50072863  1
  Cl  Cl12  1  0.26331042  0.99961575  0.76249215  1
  Cl  Cl13  1  0.73748604  0.99969239  0.76329141  1
  Cl  Cl14  1  0.50019351  0.76293437  0.00069684  1
  Cl  Cl15  1  0.76266505  0.49962953  0.26348519  1
  Cl  Cl16  1  0.23651271  0.49968233  0.26267135  1
  Cl  Cl17  1  0.00018057  0.73699268  0.49927545  1
  Cl  Cl18  1  0.23749124  0.50023367  0.73667788  1
  Cl  Cl19  1  0.76332097  0.50029868  0.73749920  1
