# generated using pymatgen
data_Cs2SiHgCl6
_symmetry_space_group_name_H-M   'P 1'
_cell_length_a   7.64786685
_cell_length_b   10.81341790
_cell_length_c   7.64778675
_cell_angle_alpha   89.99349326
_cell_angle_beta   89.99994667
_cell_angle_gamma   89.99987563
_symmetry_Int_Tables_number   1
_chemical_formula_structural   Cs2SiHgCl6
_chemical_formula_sum   'Cs4 Si2 Hg2 Cl12'
_cell_volume   632.46874999
_cell_formula_units_Z   2
loop_
 _symmetry_equiv_pos_site_id
 _symmetry_equiv_pos_as_xyz
  1  'x, y, z'
loop_
 _atom_site_type_symbol
 _atom_site_label
 _atom_site_symmetry_multiplicity
 _atom_site_fract_x
 _atom_site_fract_y
 _atom_site_fract_z
 _atom_site_occupancy
  Cs  Cs0  1  0.49995912  0.24998217  0.49967969  1
  Cs  Cs1  1  0.99998057  0.24995912  0.00029371  1
  Cs  Cs2  1  0.50001332  0.74997844  0.49970156  1
  Cs  Cs3  1  0.00003521  0.74996228  0.00027216  1
  Si  Si4  1  0.50000491  0.99997811  0.99974492  1
  Si  Si5  1  0.99999004  0.49993585  0.50023771  1
  Hg  Hg6  1  0.00000529  0.99994936  0.49968281  1
  Hg  Hg7  1  0.49998575  0.50001570  0.00026913  1
  Cl  Cl8  1  0.49995834  0.20738219  0.99949140  1
  Cl  Cl9  1  0.29256674  0.00004602  0.20714112  1
  Cl  Cl10  1  0.70725132  0.00009444  0.20732910  1
  Cl  Cl11  1  0.99994519  0.29253142  0.50049641  1
  Cl  Cl12  1  0.29264291  0.99985195  0.79234492  1
  Cl  Cl13  1  0.70754587  0.99989582  0.79252561  1
  Cl  Cl14  1  0.50005381  0.79257182  0.99995342  1
  Cl  Cl15  1  0.79255479  0.49986027  0.29284209  1
  Cl  Cl16  1  0.20724247  0.49981462  0.29265575  1
  Cl  Cl17  1  0.00003310  0.70734148  0.50002896  1
  Cl  Cl18  1  0.20753808  0.50001590  0.70745158  1
  Cl  Cl19  1  0.79263852  0.50005736  0.70764676  1
