# generated using pymatgen
data_Cs2SiSnCl6
_symmetry_space_group_name_H-M   'P 1'
_cell_length_a   7.58272533
_cell_length_b   10.72190465
_cell_length_c   7.58271058
_cell_angle_alpha   89.99710288
_cell_angle_beta   89.99998032
_cell_angle_gamma   89.99996121
_symmetry_Int_Tables_number   1
_chemical_formula_structural   Cs2SiSnCl6
_chemical_formula_sum   'Cs4 Si2 Sn2 Cl12'
_cell_volume   616.48390866
_cell_formula_units_Z   2
loop_
 _symmetry_equiv_pos_site_id
 _symmetry_equiv_pos_as_xyz
  1  'x, y, z'
loop_
 _atom_site_type_symbol
 _atom_site_label
 _atom_site_symmetry_multiplicity
 _atom_site_fract_x
 _atom_site_fract_y
 _atom_site_fract_z
 _atom_site_occupancy
  Cs  Cs0  1  0.49979222  0.24974929  0.49983030  1
  Cs  Cs1  1  0.99978842  0.25017217  0.00015460  1
  Cs  Cs2  1  0.50020252  0.74974865  0.50016207  1
  Cs  Cs3  1  0.00020680  0.75017171  0.99981473  1
  Si  Si4  1  0.49999733  0.99995670  0.99990587  1
  Si  Si5  1  0.99999741  0.49996127  0.50007356  1
  Sn  Sn6  1  0.99999755  0.99996316  0.49986807  1
  Sn  Sn7  1  0.49999655  0.49995722  0.00011070  1
  Cl  Cl8  1  0.49980338  0.23952638  0.99927558  1
  Cl  Cl9  1  0.26014502  0.00028019  0.23903446  1
  Cl  Cl10  1  0.73905869  0.00023314  0.23982855  1
  Cl  Cl11  1  0.99981658  0.26040266  0.50070482  1
  Cl  Cl12  1  0.26075614  0.99962901  0.75994609  1
  Cl  Cl13  1  0.74002933  0.99970004  0.76073379  1
  Cl  Cl14  1  0.50019059  0.76039284  0.00067901  1
  Cl  Cl15  1  0.76013631  0.49963891  0.26094806  1
  Cl  Cl16  1  0.23905241  0.49969392  0.26014566  1
  Cl  Cl17  1  0.00017777  0.73953569  0.49929379  1
  Cl  Cl18  1  0.24003375  0.50022568  0.73923491  1
  Cl  Cl19  1  0.76076659  0.50028569  0.74004420  1
