# generated using pymatgen
data_Cs2SiGeCl6
_symmetry_space_group_name_H-M   'P 1'
_cell_length_a   7.62896171
_cell_length_b   10.82776953
_cell_length_c   7.63622040
_cell_angle_alpha   90.00721712
_cell_angle_beta   90.00500846
_cell_angle_gamma   90.00181463
_symmetry_Int_Tables_number   1
_chemical_formula_structural   Cs2SiGeCl6
_chemical_formula_sum   'Cs4 Si2 Ge2 Cl12'
_cell_volume   630.78722293
_cell_formula_units_Z   2
loop_
 _symmetry_equiv_pos_site_id
 _symmetry_equiv_pos_as_xyz
  1  'x, y, z'
loop_
 _atom_site_type_symbol
 _atom_site_label
 _atom_site_symmetry_multiplicity
 _atom_site_fract_x
 _atom_site_fract_y
 _atom_site_fract_z
 _atom_site_occupancy
  Cs  Cs0  1  0.50005925  0.25501172  0.49069805  1
  Cs  Cs1  1  0.00001366  0.25460431  0.00558056  1
  Cs  Cs2  1  0.49997225  0.75451118  0.49428626  1
  Cs  Cs3  1  0.99997174  0.75499219  0.00952416  1
  Si  Si4  1  0.49996816  0.01451306  0.97843486  1
  Si  Si5  1  0.99994152  0.51477635  0.52157225  1
  Ge  Ge6  1  0.00005600  0.01140179  0.49047237  1
  Ge  Ge7  1  0.50001205  0.51097784  0.00933532  1
  Cl  Cl8  1  0.50005701  0.22500852  0.98802682  1
  Cl  Cl9  1  0.22985579  0.00096523  0.27669270  1
  Cl  Cl10  1  0.77060530  0.00101647  0.27623657  1
  Cl  Cl11  1  0.00011062  0.23192922  0.50095077  1
  Cl  Cl12  1  0.27901880  0.00277819  0.77881122  1
  Cl  Cl13  1  0.72047024  0.00273020  0.77836794  1
  Cl  Cl14  1  0.49991439  0.73146645  0.99826656  1
  Cl  Cl15  1  0.72979997  0.50096795  0.22324025  1
  Cl  Cl16  1  0.27068268  0.50087396  0.22368442  1
  Cl  Cl17  1  0.99988824  0.72534443  0.51295039  1
  Cl  Cl18  1  0.22051400  0.50270872  0.72154437  1
  Cl  Cl19  1  0.77903371  0.50264655  0.72111297  1
