# generated using pymatgen
data_Cs2ZnSiCl6
_symmetry_space_group_name_H-M   'P 1'
_cell_length_a   7.23186040
_cell_length_b   10.22409077
_cell_length_c   7.23191608
_cell_angle_alpha   90.00182311
_cell_angle_beta   90.00000201
_cell_angle_gamma   90.00002195
_symmetry_Int_Tables_number   1
_chemical_formula_structural   Cs2ZnSiCl6
_chemical_formula_sum   'Cs4 Zn2 Si2 Cl12'
_cell_volume   534.72206841
_cell_formula_units_Z   2
loop_
 _symmetry_equiv_pos_site_id
 _symmetry_equiv_pos_as_xyz
  1  'x, y, z'
loop_
 _atom_site_type_symbol
 _atom_site_label
 _atom_site_symmetry_multiplicity
 _atom_site_fract_x
 _atom_site_fract_y
 _atom_site_fract_z
 _atom_site_occupancy
  Cs  Cs0  1  0.49981312  0.24979584  0.49983882  1
  Cs  Cs1  1  0.99980955  0.25012591  0.00014456  1
  Cs  Cs2  1  0.50018123  0.74979554  0.50013733  1
  Cs  Cs3  1  0.00018547  0.75012530  0.99983883  1
  Si  Si4  1  0.49999853  0.99995399  0.99984736  1
  Si  Si5  1  0.99999682  0.49996109  0.50013223  1
  Zn  Zn6  1  0.99999791  0.99995753  0.49984314  1
  Zn  Zn7  1  0.49999636  0.49994837  0.00013722  1
  Cl  Cl8  1  0.49982510  0.25362950  0.99936187  1
  Cl  Cl9  1  0.24590113  0.00023457  0.25338300  1
  Cl  Cl10  1  0.75342438  0.00018951  0.25405048  1
  Cl  Cl11  1  0.99983681  0.24630118  0.50061834  1
  Cl  Cl12  1  0.24653003  0.99969224  0.74582245  1
  Cl  Cl13  1  0.75413153  0.99973408  0.74648882  1
  Cl  Cl14  1  0.50016889  0.74629800  0.00062376  1
  Cl  Cl15  1  0.74589491  0.49968812  0.24660179  1
  Cl  Cl16  1  0.25341973  0.49973997  0.24592172  1
  Cl  Cl17  1  0.00015768  0.75363229  0.49934934  1
  Cl  Cl18  1  0.25413672  0.50019445  0.75348222  1
  Cl  Cl19  1  0.74653947  0.50022685  0.75416556  1
