# generated using pymatgen
data_Cs2TlPCl6
_symmetry_space_group_name_H-M   'P 1'
_cell_length_a   7.64613963
_cell_length_b   10.81110206
_cell_length_c   7.64614536
_cell_angle_alpha   89.99475548
_cell_angle_beta   90.00002244
_cell_angle_gamma   89.99981145
_symmetry_Int_Tables_number   1
_chemical_formula_structural   Cs2TlPCl6
_chemical_formula_sum   'Cs4 Tl2 P2 Cl12'
_cell_volume   632.05480905
_cell_formula_units_Z   2
loop_
 _symmetry_equiv_pos_site_id
 _symmetry_equiv_pos_as_xyz
  1  'x, y, z'
loop_
 _atom_site_type_symbol
 _atom_site_label
 _atom_site_symmetry_multiplicity
 _atom_site_fract_x
 _atom_site_fract_y
 _atom_site_fract_z
 _atom_site_occupancy
  Cs  Cs0  1  0.49985727  0.24985152  0.49986808  1
  Cs  Cs1  1  0.99985363  0.25007110  0.00011516  1
  Cs  Cs2  1  0.50013735  0.74985296  0.50009896  1
  Cs  Cs3  1  0.00014147  0.75007206  0.99987889  1
  P  P4  1  0.49999730  0.99996074  0.99988375  1
  P  P5  1  0.99999719  0.49996453  0.50009442  1
  Tl  Tl6  1  0.99999709  0.99996680  0.49985808  1
  Tl  Tl7  1  0.49999683  0.49996158  0.00011949  1
  Cl  Cl8  1  0.49988538  0.22354677  0.99942421  1
  Cl  Cl9  1  0.27622277  0.00014978  0.22316929  1
  Cl  Cl10  1  0.72324465  0.00018944  0.22369506  1
  Cl  Cl11  1  0.99989053  0.27637262  0.50055609  1
  Cl  Cl12  1  0.27674479  0.99970815  0.77614441  1
  Cl  Cl13  1  0.72377527  0.99979041  0.77666925  1
  Cl  Cl14  1  0.50011006  0.77636902  0.00040082  1
  Cl  Cl15  1  0.77621804  0.49977012  0.27681498  1
  Cl  Cl16  1  0.22324093  0.49973209  0.27627847  1
  Cl  Cl17  1  0.00010315  0.72355092  0.49957558  1
  Cl  Cl18  1  0.22378054  0.50013163  0.72330309  1
  Cl  Cl19  1  0.77675112  0.50021210  0.72384071  1
