# generated using pymatgen
data_HfCdH12C2(I3N)2
_symmetry_space_group_name_H-M   'P 1'
_cell_length_a   8.58873614
_cell_length_b   12.43240477
_cell_length_c   8.47783025
_cell_angle_alpha   95.60806170
_cell_angle_beta   90.00034643
_cell_angle_gamma   89.94810776
_symmetry_Int_Tables_number   1
_chemical_formula_structural   HfCdH12C2(I3N)2
_chemical_formula_sum   'Hf2 Cd2 H24 C4 I12 N4'
_cell_volume   900.91800668
_cell_formula_units_Z   2
loop_
 _symmetry_equiv_pos_site_id
 _symmetry_equiv_pos_as_xyz
  1  'x, y, z'
loop_
 _atom_site_type_symbol
 _atom_site_label
 _atom_site_symmetry_multiplicity
 _atom_site_fract_x
 _atom_site_fract_y
 _atom_site_fract_z
 _atom_site_occupancy
  C  C0  1  0.39906039  0.25062343  0.41419128  1
  C  C1  1  0.90010551  0.24966170  0.08672815  1
  C  C2  1  0.60093897  0.74937968  0.58581874  1
  C  C3  1  0.09989797  0.75034182  0.91328687  1
  N  N4  1  0.53928949  0.25308795  0.51753349  1
  N  N5  1  0.03979663  0.24696190  0.98261410  1
  N  N6  1  0.46070933  0.74691805  0.48247595  1
  N  N7  1  0.96021041  0.75303715  0.01740548  1
  H  H8  1  0.43699050  0.24598738  0.29031081  1
  H  H9  1  0.32992243  0.17946749  0.43471048  1
  H  H10  1  0.33160639  0.32463461  0.44410823  1
  H  H11  1  0.60547547  0.18303575  0.49215847  1
  H  H12  1  0.60850236  0.31896344  0.49884454  1
  H  H13  1  0.51044422  0.25858250  0.63788984  1
  H  H14  1  0.93868292  0.25437508  0.21040569  1
  H  H15  1  0.83258716  0.17570574  0.05734549  1
  H  H16  1  0.83078458  0.32087475  0.06646979  1
  H  H17  1  0.10913491  0.18099560  0.00098839  1
  H  H18  1  0.10605945  0.31692699  0.00759410  1
  H  H19  1  0.01035762  0.24146280  0.86241352  1
  H  H20  1  0.56300859  0.75401654  0.70969885  1
  H  H21  1  0.66839102  0.67536834  0.55590165  1
  H  H22  1  0.67007844  0.82053548  0.56529930  1
  H  H23  1  0.39452482  0.81696907  0.50785265  1
  H  H24  1  0.39149592  0.68104161  0.50116541  1
  H  H25  1  0.48955444  0.74142292  0.36212040  1
  H  H26  1  0.06131645  0.74563083  0.78961085  1
  H  H27  1  0.16741470  0.82429838  0.94267091  1
  H  H28  1  0.16922198  0.67912922  0.93353913  1
  H  H29  1  0.89086888  0.81900253  0.99903666  1
  H  H30  1  0.89394934  0.68307119  0.99242384  1
  H  H31  1  0.98965304  0.75853391  0.13760507  1
  Cd  Cd32  1  0.50000285  0.00000694  0.00001333  1
  Cd  Cd33  1  0.99999433  0.49999668  0.49998838  1
  Hf  Hf34  1  0.00000150  0.00000092  0.50001072  1
  Hf  Hf35  1  0.49999923  0.50000444  0.99999944  1
  I  I36  1  0.47643414  0.27077865  0.93561287  1
  I  I37  1  0.14408008  0.02163836  0.20208633  1
  I  I38  1  0.70192247  -0.00101396  0.35240053  1
  I  I39  1  0.97573003  0.22919479  0.56464497  1
  I  I40  1  0.29808074  1.00101720  0.64762048  1
  I  I41  1  0.85592111  0.97836044  0.79793276  1
  I  I42  1  0.52356590  0.72922977  0.06439287  1
  I  I43  1  0.64381825  0.47826452  0.29802693  1
  I  I44  1  0.20181439  0.50107724  0.14733601  1
  I  I45  1  0.02427335  0.77080630  0.43537693  1
  I  I46  1  0.35616992  0.52174223  0.70197537  1
  I  I47  1  0.79818111  0.49892994  0.85266054  1
