# generated using pymatgen
data_Cs2AgPCl6
_symmetry_space_group_name_H-M   'P 1'
_cell_length_a   7.32208849
_cell_length_b   10.34236884
_cell_length_c   7.32209923
_cell_angle_alpha   89.99188530
_cell_angle_beta   90.00011278
_cell_angle_gamma   89.99985080
_symmetry_Int_Tables_number   1
_chemical_formula_structural   Cs2AgPCl6
_chemical_formula_sum   'Cs4 Ag2 P2 Cl12'
_cell_volume   554.48602001
_cell_formula_units_Z   2
loop_
 _symmetry_equiv_pos_site_id
 _symmetry_equiv_pos_as_xyz
  1  'x, y, z'
loop_
 _atom_site_type_symbol
 _atom_site_label
 _atom_site_symmetry_multiplicity
 _atom_site_fract_x
 _atom_site_fract_y
 _atom_site_fract_z
 _atom_site_occupancy
  Cs  Cs0  1  0.49987570  0.24988886  0.49985550  1
  Cs  Cs1  1  0.99987202  0.25003113  0.00012786  1
  Cs  Cs2  1  0.50011854  0.74988867  0.50009366  1
  Cs  Cs3  1  0.00012320  0.75003021  0.99988370  1
  P  P4  1  0.49999802  0.99996420  0.99989286  1
  P  P5  1  0.99999637  0.49996565  0.50008496  1
  Ag  Ag6  1  0.99999847  0.99997190  0.49985002  1
  Ag  Ag7  1  0.49999523  0.49996843  0.00012675  1
  Cl  Cl8  1  0.49987614  0.23539545  0.99957162  1
  Cl  Cl9  1  0.26458406  0.00007647  0.23499237  1
  Cl  Cl10  1  0.73505608  0.00009516  0.23534626  1
  Cl  Cl11  1  0.99988183  0.26451817  0.50040883  1
  Cl  Cl12  1  0.26495444  0.99981127  0.76453842  1
  Cl  Cl13  1  0.73539280  0.99986086  0.76489280  1
  Cl  Cl14  1  0.50011901  0.76451484  0.00032706  1
  Cl  Cl15  1  0.76458081  0.49984482  0.26499029  1
  Cl  Cl16  1  0.23505341  0.49982775  0.26462967  1
  Cl  Cl17  1  0.00011190  0.73539839  0.49964819  1
  Cl  Cl18  1  0.23539737  0.50006208  0.73508430  1
  Cl  Cl19  1  0.76495998  0.50011004  0.73544371  1
