# generated using pymatgen
data_Cs2CaHgCl6
_symmetry_space_group_name_H-M   'P 1'
_cell_length_a   7.61182408
_cell_length_b   10.76341872
_cell_length_c   7.61183744
_cell_angle_alpha   89.99795864
_cell_angle_beta   89.99997091
_cell_angle_gamma   90.00000682
_symmetry_Int_Tables_number   1
_chemical_formula_structural   Cs2CaHgCl6
_chemical_formula_sum   'Cs4 Ca2 Hg2 Cl12'
_cell_volume   623.63213044
_cell_formula_units_Z   2
loop_
 _symmetry_equiv_pos_site_id
 _symmetry_equiv_pos_as_xyz
  1  'x, y, z'
loop_
 _atom_site_type_symbol
 _atom_site_label
 _atom_site_symmetry_multiplicity
 _atom_site_fract_x
 _atom_site_fract_y
 _atom_site_fract_z
 _atom_site_occupancy
  Cs  Cs0  1  0.49977605  0.24972596  0.49980028  1
  Cs  Cs1  1  0.99977231  0.25019584  0.00018512  1
  Cs  Cs2  1  0.50021858  0.74972535  0.50017426  1
  Cs  Cs3  1  0.00022318  0.75019451  0.99980194  1
  Ca  Ca4  1  0.49999855  0.99995760  0.99982055  1
  Ca  Ca5  1  0.99999633  0.49996598  0.50015769  1
  Hg  Hg6  1  0.99999816  0.99996587  0.49980520  1
  Hg  Hg7  1  0.49999538  0.49995603  0.00017288  1
  Cl  Cl8  1  0.49977630  0.25117362  0.99921572  1
  Cl  Cl9  1  0.24840966  0.00030884  0.25073450  1
  Cl  Cl10  1  0.75074448  0.00024598  0.25157597  1
  Cl  Cl11  1  0.99979052  0.24874923  0.50076389  1
  Cl  Cl12  1  0.24911385  0.99960822  0.74826990  1
  Cl  Cl13  1  0.75171882  0.99968307  0.74910665  1
  Cl  Cl14  1  0.50021808  0.74874289  0.00076204  1
  Cl  Cl15  1  0.74840199  0.49961154  0.24924987  1
  Cl  Cl16  1  0.25073851  0.49968254  0.24839725  1
  Cl  Cl17  1  0.00020337  0.75118062  0.49920924  1
  Cl  Cl18  1  0.25172601  0.50024412  0.75086386  1
  Cl  Cl19  1  0.74912525  0.50030653  0.75172199  1
