# generated using pymatgen
data_Cs2CaSnCl6
_symmetry_space_group_name_H-M   'P 1'
_cell_length_a   7.77510037
_cell_length_b   10.99449875
_cell_length_c   7.77511878
_cell_angle_alpha   89.99659686
_cell_angle_beta   89.99995000
_cell_angle_gamma   89.99994612
_symmetry_Int_Tables_number   1
_chemical_formula_structural   Cs2CaSnCl6
_chemical_formula_sum   'Cs4 Ca2 Sn2 Cl12'
_cell_volume   664.64305331
_cell_formula_units_Z   2
loop_
 _symmetry_equiv_pos_site_id
 _symmetry_equiv_pos_as_xyz
  1  'x, y, z'
loop_
 _atom_site_type_symbol
 _atom_site_label
 _atom_site_symmetry_multiplicity
 _atom_site_fract_x
 _atom_site_fract_y
 _atom_site_fract_z
 _atom_site_occupancy
  Cs  Cs0  1  0.49976739  0.24971944  0.49979044  1
  Cs  Cs1  1  0.99976344  0.25020243  0.00019413  1
  Cs  Cs2  1  0.50022626  0.74971833  0.50018178  1
  Cs  Cs3  1  0.00023207  0.75020203  0.99979496  1
  Ca  Ca4  1  0.49999836  0.99995737  0.99982644  1
  Ca  Ca5  1  0.99999639  0.49996565  0.50015211  1
  Sn  Sn6  1  0.99999760  0.99996567  0.49982249  1
  Sn  Sn7  1  0.49999577  0.49995726  0.00015603  1
  Cl  Cl8  1  0.49977376  0.24594226  0.99918894  1
  Cl  Cl9  1  0.25362473  0.00031541  0.24549864  1
  Cl  Cl10  1  0.74550595  0.00025467  0.24636392  1
  Cl  Cl11  1  0.99978665  0.25398183  0.50079177  1
  Cl  Cl12  1  0.25432704  0.99959584  0.75345939  1
  Cl  Cl13  1  0.74652932  0.99967748  0.75432161  1
  Cl  Cl14  1  0.50022249  0.75397423  0.00076725  1
  Cl  Cl15  1  0.75361689  0.49960278  0.25448437  1
  Cl  Cl16  1  0.24549824  0.49967368  0.25360939  1
  Cl  Cl17  1  0.00020828  0.74594920  0.49920261  1
  Cl  Cl18  1  0.24653669  0.50025047  0.74564925  1
  Cl  Cl19  1  0.75433805  0.50031827  0.74653329  1
