# generated using pymatgen
data_Cs2CaCdCl6
_symmetry_space_group_name_H-M   'P 1'
_cell_length_a   7.56142662
_cell_length_b   10.68943905
_cell_length_c   7.56141809
_cell_angle_alpha   89.99942802
_cell_angle_beta   89.99992437
_cell_angle_gamma   89.99997483
_symmetry_Int_Tables_number   1
_chemical_formula_structural   Cs2CaCdCl6
_chemical_formula_sum   'Cs4 Ca2 Cd2 Cl12'
_cell_volume   611.16983295
_cell_formula_units_Z   2
loop_
 _symmetry_equiv_pos_site_id
 _symmetry_equiv_pos_as_xyz
  1  'x, y, z'
loop_
 _atom_site_type_symbol
 _atom_site_label
 _atom_site_symmetry_multiplicity
 _atom_site_fract_x
 _atom_site_fract_y
 _atom_site_fract_z
 _atom_site_occupancy
  Cs  Cs0  1  0.49982051  0.24978257  0.49984984  1
  Cs  Cs1  1  0.99981782  0.25013919  0.00013429  1
  Cs  Cs2  1  0.50017289  0.74978219  0.50012448  1
  Cs  Cs3  1  0.00017768  0.75013919  0.99985247  1
  Ca  Ca4  1  0.49999855  0.99995836  0.99985561  1
  Ca  Ca5  1  0.99999591  0.49996472  0.50012267  1
  Cd  Cd6  1  0.99999807  0.99996576  0.49985355  1
  Cd  Cd7  1  0.49999587  0.49995862  0.00012557  1
  Cl  Cl8  1  0.49980913  0.25337750  0.99927880  1
  Cl  Cl9  1  0.24626333  0.00029555  0.25289972  1
  Cl  Cl10  1  0.75293058  0.00023928  0.25370045  1
  Cl  Cl11  1  0.99982195  0.24654569  0.50070183  1
  Cl  Cl12  1  0.24697787  0.99962570  0.74614900  1
  Cl  Cl13  1  0.75381794  0.99968309  0.74694681  1
  Cl  Cl14  1  0.50018454  0.74654063  0.00070866  1
  Cl  Cl15  1  0.74625491  0.49962294  0.24708600  1
  Cl  Cl16  1  0.25292471  0.49968834  0.24627052  1
  Cl  Cl17  1  0.00017243  0.75338269  0.49926382  1
  Cl  Cl18  1  0.25382453  0.50024334  0.75302143  1
  Cl  Cl19  1  0.74698616  0.50028898  0.75384329  1
