# generated using pymatgen
data_BaCdH12C2(I3N)2
_symmetry_space_group_name_H-M   'P 1'
_cell_length_a   8.66014981
_cell_length_b   12.55884637
_cell_length_c   8.48797803
_cell_angle_alpha   88.68237006
_cell_angle_beta   90.00614422
_cell_angle_gamma   90.00579249
_symmetry_Int_Tables_number   1
_chemical_formula_structural   BaCdH12C2(I3N)2
_chemical_formula_sum   'Ba2 Cd2 H24 C4 I12 N4'
_cell_volume   922.92103359
_cell_formula_units_Z   2
loop_
 _symmetry_equiv_pos_site_id
 _symmetry_equiv_pos_as_xyz
  1  'x, y, z'
loop_
 _atom_site_type_symbol
 _atom_site_label
 _atom_site_symmetry_multiplicity
 _atom_site_fract_x
 _atom_site_fract_y
 _atom_site_fract_z
 _atom_site_occupancy
  C  C0  1  0.39612896  0.25056094  0.41547939  1
  C  C1  1  0.89738650  0.24965322  0.08576692  1
  C  C2  1  0.60386794  0.74944183  0.58453612  1
  C  C3  1  0.10262108  0.75034726  0.91424669  1
  N  N4  1  0.53393424  0.24975655  0.51960200  1
  N  N5  1  0.03450974  0.25030399  0.98074604  1
  N  N6  1  0.46606137  0.75024650  0.48041549  1
  N  N7  1  0.96549891  0.74969319  0.01926902  1
  H  H8  1  0.43485395  0.25060010  0.29253235  1
  H  H9  1  0.32876083  0.17841929  0.44050933  1
  H  H10  1  0.32735403  0.32169239  0.43810053  1
  H  H11  1  0.60085394  0.18290064  0.49704642  1
  H  H12  1  0.60165571  0.31714906  0.49703184  1
  H  H13  1  0.50471546  0.24790341  0.63913770  1
  H  H14  1  0.93696291  0.24966149  0.20843699  1
  H  H15  1  0.82832391  0.17855140  0.06371606  1
  H  H16  1  0.83001414  0.32184703  0.06116551  1
  H  H17  1  0.10222915  0.18286834  0.00297760  1
  H  H18  1  0.10169270  0.31712532  0.00281626  1
  H  H19  1  0.00457630  0.25212674  0.86139317  1
  H  H20  1  0.56514500  0.74940424  0.70748407  1
  H  H21  1  0.67264195  0.67830983  0.56191519  1
  H  H22  1  0.67123711  0.82158298  0.55950456  1
  H  H23  1  0.39914226  0.81710225  0.50297198  1
  H  H24  1  0.39834018  0.68285351  0.50298546  1
  H  H25  1  0.49527929  0.75210021  0.36087968  1
  H  H26  1  0.06304357  0.75034139  0.79157707  1
  H  H27  1  0.17168385  0.82144836  0.93630119  1
  H  H28  1  0.16999317  0.67815294  0.93884405  1
  H  H29  1  0.89777674  0.81712786  0.99704033  1
  H  H30  1  0.89831802  0.68287091  0.99719814  1
  H  H31  1  0.99543330  0.74786995  0.13862213  1
  Cd  Cd32  1  0.50000205  0.00001044  0.00000877  1
  Cd  Cd33  1  0.99998871  0.50000106  0.49999042  1
  Ba  Ba34  1  0.00000251  0.00000255  0.50001117  1
  Ba  Ba35  1  0.49999623  0.50001262  0.99998777  1
  I  I36  1  0.47218351  0.23694194  0.93557559  1
  I  I37  1  0.19246155  0.01240707  0.15468022  1
  I  I38  1  0.65701239  0.02203054  0.31318321  1
  I  I39  1  0.97168273  0.26306374  0.56497922  1
  I  I40  1  0.34299843  0.97798046  0.68683081  1
  I  I41  1  0.80754515  0.98759433  0.84533977  1
  I  I42  1  0.52782054  0.76307416  0.06444494  1
  I  I43  1  0.69248504  0.48737617  0.34521804  1
  I  I44  1  0.15715280  0.47815963  0.18688660  1
  I  I45  1  0.02831082  0.73694146  0.43503152  1
  I  I46  1  0.30749783  0.51262428  0.65476994  1
  I  I47  1  0.84284722  0.52184473  0.81310931  1
