# generated using pymatgen
data_Cs2SrCaCl6
_symmetry_space_group_name_H-M   'P 1'
_cell_length_a   7.81531220
_cell_length_b   11.05041302
_cell_length_c   7.81533551
_cell_angle_alpha   89.99852087
_cell_angle_beta   89.99987492
_cell_angle_gamma   89.99990198
_symmetry_Int_Tables_number   1
_chemical_formula_structural   Cs2SrCaCl6
_chemical_formula_sum   'Cs4 Sr2 Ca2 Cl12'
_cell_volume   674.95134750
_cell_formula_units_Z   2
loop_
 _symmetry_equiv_pos_site_id
 _symmetry_equiv_pos_as_xyz
  1  'x, y, z'
loop_
 _atom_site_type_symbol
 _atom_site_label
 _atom_site_symmetry_multiplicity
 _atom_site_fract_x
 _atom_site_fract_y
 _atom_site_fract_z
 _atom_site_occupancy
  Cs  Cs0  1  0.49978936  0.24974978  0.49982554  1
  Cs  Cs1  1  0.99978553  0.25017307  0.00015899  1
  Cs  Cs2  1  0.50020515  0.74974844  0.50015897  1
  Cs  Cs3  1  0.00020917  0.75017302  0.99981821  1
  Ca  Ca4  1  0.49999837  0.99995752  0.99984489  1
  Ca  Ca5  1  0.99999682  0.49996501  0.50013327  1
  Sr  Sr6  1  0.99999825  0.99996558  0.49983613  1
  Sr  Sr7  1  0.49999669  0.49995808  0.00014172  1
  Cl  Cl8  1  0.49979008  0.24437468  0.99919472  1
  Cl  Cl9  1  0.25516440  0.00032354  0.24393048  1
  Cl  Cl10  1  0.74395204  0.00026863  0.24481049  1
  Cl  Cl11  1  0.99980291  0.25554840  0.50078510  1
  Cl  Cl12  1  0.25591525  0.99958588  0.75502229  1
  Cl  Cl13  1  0.74495448  0.99966493  0.75589716  1
  Cl  Cl14  1  0.50020555  0.75554124  0.00076425  1
  Cl  Cl15  1  0.75515519  0.49959530  0.25605364  1
  Cl  Cl16  1  0.24394645  0.49966007  0.25516400  1
  Cl  Cl17  1  0.00019056  0.74438079  0.49920778  1
  Cl  Cl18  1  0.24496116  0.50026142  0.74407369  1
  Cl  Cl19  1  0.75592796  0.50032896  0.74496747  1
