# generated using pymatgen
data_Cs2CaGeCl6
_symmetry_space_group_name_H-M   'P 1'
_cell_length_a   7.59467855
_cell_length_b   10.73869105
_cell_length_c   7.59468936
_cell_angle_alpha   89.99858630
_cell_angle_beta   90.00007185
_cell_angle_gamma   89.99998624
_symmetry_Int_Tables_number   1
_chemical_formula_structural   Cs2CaGeCl6
_chemical_formula_sum   'Cs4 Ca2 Ge2 Cl12'
_cell_volume   619.39937015
_cell_formula_units_Z   2
loop_
 _symmetry_equiv_pos_site_id
 _symmetry_equiv_pos_as_xyz
  1  'x, y, z'
loop_
 _atom_site_type_symbol
 _atom_site_label
 _atom_site_symmetry_multiplicity
 _atom_site_fract_x
 _atom_site_fract_y
 _atom_site_fract_z
 _atom_site_occupancy
  Cs  Cs0  1  0.49979031  0.24974474  0.49981373  1
  Cs  Cs1  1  0.99978646  0.25017691  0.00017121  1
  Cs  Cs2  1  0.50020384  0.74974389  0.50015457  1
  Cs  Cs3  1  0.00020896  0.75017650  0.99982211  1
  Ca  Ca4  1  0.49999835  0.99995785  0.99983726  1
  Ca  Ca5  1  0.99999631  0.49996518  0.50014078  1
  Ge  Ge6  1  0.99999747  0.99996497  0.49984664  1
  Ge  Ge7  1  0.49999620  0.49995767  0.00013139  1
  Cl  Cl8  1  0.49979046  0.25277352  0.99924603  1
  Cl  Cl9  1  0.24686850  0.00030111  0.25228735  1
  Cl  Cl10  1  0.75230673  0.00024226  0.25310515  1
  Cl  Cl11  1  0.99980471  0.24715012  0.50073446  1
  Cl  Cl12  1  0.24755943  0.99961662  0.74672366  1
  Cl  Cl13  1  0.75325482  0.99968504  0.74754012  1
  Cl  Cl14  1  0.50020287  0.74714282  0.00072997  1
  Cl  Cl15  1  0.74686225  0.49961865  0.24769990  1
  Cl  Cl16  1  0.25230000  0.49968617  0.24686574  1
  Cl  Cl17  1  0.00018914  0.75277996  0.49924148  1
  Cl  Cl18  1  0.25326004  0.50024169  0.75242957  1
  Cl  Cl19  1  0.74756851  0.50029866  0.75326770  1
