# generated using pymatgen
data_Cs2ScTlCl6
_symmetry_space_group_name_H-M   'P 1'
_cell_length_a   7.78065569
_cell_length_b   10.99903175
_cell_length_c   7.78070586
_cell_angle_alpha   89.99196756
_cell_angle_beta   89.99996556
_cell_angle_gamma   89.99982347
_symmetry_Int_Tables_number   1
_chemical_formula_structural   Cs2ScTlCl6
_chemical_formula_sum   'Cs4 Sc2 Tl2 Cl12'
_cell_volume   665.87030304
_cell_formula_units_Z   2
loop_
 _symmetry_equiv_pos_site_id
 _symmetry_equiv_pos_as_xyz
  1  'x, y, z'
loop_
 _atom_site_type_symbol
 _atom_site_label
 _atom_site_symmetry_multiplicity
 _atom_site_fract_x
 _atom_site_fract_y
 _atom_site_fract_z
 _atom_site_occupancy
  Cs  Cs0  1  0.49981769  0.24978857  0.49983456  1
  Cs  Cs1  1  0.99981356  0.25013539  0.00014969  1
  Cs  Cs2  1  0.50017739  0.74978995  0.50014723  1
  Cs  Cs3  1  0.00018161  0.75013672  0.99983022  1
  Sc  Sc4  1  0.49999831  0.99995849  0.99987374  1
  Sc  Sc5  1  0.99999604  0.49996438  0.50010458  1
  Tl  Tl6  1  0.99999803  0.99996663  0.49982685  1
  Tl  Tl7  1  0.49999540  0.49995886  0.00015122  1
  Cl  Cl8  1  0.49984935  0.22492101  0.99927602  1
  Cl  Cl9  1  0.27475245  0.00021920  0.22447416  1
  Cl  Cl10  1  0.72453514  0.00024897  0.22518191  1
  Cl  Cl11  1  0.99985878  0.27500184  0.50070389  1
  Cl  Cl12  1  0.27540189  0.99962519  0.77463364  1
  Cl  Cl13  1  0.72530416  0.99974058  0.77534166  1
  Cl  Cl14  1  0.50014624  0.77499694  0.00056536  1
  Cl  Cl15  1  0.77474155  0.49969805  0.27551366  1
  Cl  Cl16  1  0.22452498  0.49967344  0.27478728  1
  Cl  Cl17  1  0.00013467  0.72492647  0.49941102  1
  Cl  Cl18  1  0.22531015  0.50018289  0.72462763  1
  Cl  Cl19  1  0.77540798  0.50029075  0.72535450  1
