# generated using pymatgen
data_CdSnH12C2(I3N)2
_symmetry_space_group_name_H-M   'P 1'
_cell_length_a   8.41892541
_cell_length_b   12.22217161
_cell_length_c   8.33254215
_cell_angle_alpha   89.61748948
_cell_angle_beta   90.01127823
_cell_angle_gamma   90.00537826
_symmetry_Int_Tables_number   1
_chemical_formula_structural   CdSnH12C2(I3N)2
_chemical_formula_sum   'Cd2 Sn2 H24 C4 I12 N4'
_cell_volume   857.37905506
_cell_formula_units_Z   2
loop_
 _symmetry_equiv_pos_site_id
 _symmetry_equiv_pos_as_xyz
  1  'x, y, z'
loop_
 _atom_site_type_symbol
 _atom_site_label
 _atom_site_symmetry_multiplicity
 _atom_site_fract_x
 _atom_site_fract_y
 _atom_site_fract_z
 _atom_site_occupancy
  C  C0  1  0.39508885  0.25010489  0.41444057  1
  C  C1  1  0.89633097  0.25010419  0.08672450  1
  C  C2  1  0.60490879  0.74989927  0.58557335  1
  C  C3  1  0.10367663  0.74989664  0.91328994  1
  N  N4  1  0.53611102  0.24986052  0.52109270  1
  N  N5  1  0.03666356  0.25019666  0.97921767  1
  N  N6  1  0.46388512  0.75014286  0.47892340  1
  N  N7  1  0.96334549  0.74980073  0.02079880  1
  H  H8  1  0.43549107  0.25014110  0.28950331  1
  H  H9  1  0.32509627  0.17653111  0.43887818  1
  H  H10  1  0.32482500  0.32347228  0.43815732  1
  H  H11  1  0.60546080  0.18121967  0.49839005  1
  H  H12  1  0.60563369  0.31877065  0.49853475  1
  H  H13  1  0.50553126  0.24922420  0.64261716  1
  H  H14  1  0.93760783  0.25012361  0.21140971  1
  H  H15  1  0.82578795  0.17677181  0.06360684  1
  H  H16  1  0.82632320  0.32372537  0.06269994  1
  H  H17  1  0.10618477  0.18123565  0.00143681  1
  H  H18  1  0.10626604  0.31879322  0.00144744  1
  H  H19  1  0.00534382  0.25080370  0.85787305  1
  H  H20  1  0.56450792  0.74986338  0.71051170  1
  H  H21  1  0.67517173  0.67653013  0.56185700  1
  H  H22  1  0.67490163  0.82347115  0.56113470  1
  H  H23  1  0.39453629  0.81878347  0.50162689  1
  H  H24  1  0.39436219  0.68123227  0.50148163  1
  H  H25  1  0.49446406  0.75077927  0.35739874  1
  H  H26  1  0.06239819  0.74987939  0.78860519  1
  H  H27  1  0.17421917  0.82322879  0.93641047  1
  H  H28  1  0.17368528  0.67627528  0.93731025  1
  H  H29  1  0.89382142  0.81876032  0.99858264  1
  H  H30  1  0.89374508  0.68120300  0.99856862  1
  H  H31  1  0.99466683  0.74919305  0.14214317  1
  Cd  Cd32  1  0.49999983  0.00000966  0.00000852  1
  Cd  Cd33  1  0.99998536  0.50000342  0.49998376  1
  Sn  Sn34  1  1.00000002  0.00000464  0.50001230  1
  Sn  Sn35  1  0.49999970  0.50001056  0.99998551  1
  I  I36  1  0.47402385  0.24599254  0.94348258  1
  I  I37  1  0.18828238  0.01122759  0.17292477  1
  I  I38  1  0.67449866  0.01433656  0.31479058  1
  I  I39  1  0.97336940  0.25402735  0.55712723  1
  I  I40  1  0.32550923  0.98567062  0.68522389  1
  I  I41  1  0.81172415  0.98877346  0.82709433  1
  I  I42  1  0.52598306  0.75402020  0.05653208  1
  I  I43  1  0.68828111  0.48859944  0.32701010  1
  I  I44  1  0.17463762  0.48582691  0.18525374  1
  I  I45  1  0.02662723  0.74597832  0.44288824  1
  I  I46  1  0.31169853  0.51140261  0.67298623  1
  I  I47  1  0.82536168  0.51417676  0.81474627  1
