# generated using pymatgen
data_Cs2SrFeCl6
_symmetry_space_group_name_H-M   'P 1'
_cell_length_a   7.35068415
_cell_length_b   10.38588330
_cell_length_c   7.35067234
_cell_angle_alpha   89.99539609
_cell_angle_beta   90.00000740
_cell_angle_gamma   89.99995148
_symmetry_Int_Tables_number   1
_chemical_formula_structural   Cs2SrFeCl6
_chemical_formula_sum   'Cs4 Sr2 Fe2 Cl12'
_cell_volume   561.17493310
_cell_formula_units_Z   2
loop_
 _symmetry_equiv_pos_site_id
 _symmetry_equiv_pos_as_xyz
  1  'x, y, z'
loop_
 _atom_site_type_symbol
 _atom_site_label
 _atom_site_symmetry_multiplicity
 _atom_site_fract_x
 _atom_site_fract_y
 _atom_site_fract_z
 _atom_site_occupancy
  Cs  Cs0  1  0.49982503  0.24980852  0.49987871  1
  Cs  Cs1  1  0.99982119  0.25011282  0.00010482  1
  Cs  Cs2  1  0.50016994  0.74980959  0.50013979  1
  Cs  Cs3  1  0.00017319  0.75011363  0.99983680  1
  Fe  Fe4  1  0.49999745  0.99995976  0.99991613  1
  Fe  Fe5  1  0.99999732  0.49996315  0.50006317  1
  Sr  Sr6  1  0.99999757  0.99996335  0.49987388  1
  Sr  Sr7  1  0.49999646  0.49995845  0.00010437  1
  Cl  Cl8  1  0.49983966  0.22611857  0.99930449  1
  Cl  Cl9  1  0.27350944  0.00022060  0.22573591  1
  Cl  Cl10  1  0.72578984  0.00023205  0.22643159  1
  Cl  Cl11  1  0.99985129  0.27380278  0.50067476  1
  Cl  Cl12  1  0.27415751  0.99965599  0.77341047  1
  Cl  Cl13  1  0.72653164  0.99973388  0.77410475  1
  Cl  Cl14  1  0.50015483  0.77379899  0.00058868  1
  Cl  Cl15  1  0.77350256  0.49969879  0.27424864  1
  Cl  Cl16  1  0.22578437  0.49969521  0.27354190  1
  Cl  Cl17  1  0.00014293  0.72612312  0.49938585  1
  Cl  Cl18  1  0.22653730  0.50019344  0.72586765  1
  Cl  Cl19  1  0.77416586  0.50026164  0.72657649  1
