# generated using pymatgen
data_Cs2YCuCl6
_symmetry_space_group_name_H-M   'P 1'
_cell_length_a   7.37669212
_cell_length_b   10.42586666
_cell_length_c   7.37674487
_cell_angle_alpha   90.00659883
_cell_angle_beta   89.99815669
_cell_angle_gamma   90.00008184
_symmetry_Int_Tables_number   1
_chemical_formula_structural   Cs2YCuCl6
_chemical_formula_sum   'Cs4 Y2 Cu2 Cl12'
_cell_volume   567.33370316
_cell_formula_units_Z   2
loop_
 _symmetry_equiv_pos_site_id
 _symmetry_equiv_pos_as_xyz
  1  'x, y, z'
loop_
 _atom_site_type_symbol
 _atom_site_label
 _atom_site_symmetry_multiplicity
 _atom_site_fract_x
 _atom_site_fract_y
 _atom_site_fract_z
 _atom_site_occupancy
  Cs  Cs0  1  0.49984465  0.24983713  0.49985371  1
  Cs  Cs1  1  0.99984244  0.25008302  0.00012987  1
  Cs  Cs2  1  0.50014982  0.74983779  0.50014695  1
  Cs  Cs3  1  0.00015297  0.75008402  0.99983231  1
  Cu  Cu4  1  0.50000203  0.99996147  0.99978770  1
  Cu  Cu5  1  0.99999809  0.49996871  0.50018641  1
  Y  Y6  1  0.99999686  0.99996202  0.49990229  1
  Y  Y7  1  0.49999696  0.49995950  0.00007485  1
  Cl  Cl8  1  0.49984857  0.24660868  0.99949587  1
  Cl  Cl9  1  0.25311053  0.00016435  0.24627625  1
  Cl  Cl10  1  0.74633850  0.00012507  0.24683791  1
  Cl  Cl11  1  0.99985704  0.25331145  0.50048617  1
  Cl  Cl12  1  0.25363839  0.99977245  0.75303419  1
  Cl  Cl13  1  0.74689672  0.99978301  0.75359442  1
  Cl  Cl14  1  0.50014605  0.75331046  0.00049791  1
  Cl  Cl15  1  0.75309803  0.49975549  0.25369627  1
  Cl  Cl16  1  0.24632750  0.49980113  0.25314629  1
  Cl  Cl17  1  0.00013738  0.74661098  0.49947859  1
  Cl  Cl18  1  0.24691027  0.50014209  0.74639013  1
  Cl  Cl19  1  0.75365255  0.50014552  0.74694069  1
