# generated using pymatgen
data_Cs2ZnPbCl6
_symmetry_space_group_name_H-M   'P 1'
_cell_length_a   7.51642410
_cell_length_b   10.63505354
_cell_length_c   7.51640963
_cell_angle_alpha   89.99694184
_cell_angle_beta   89.99998185
_cell_angle_gamma   89.99995993
_symmetry_Int_Tables_number   1
_chemical_formula_structural   Cs2ZnPbCl6
_chemical_formula_sum   'Cs4 Zn2 Pb2 Cl12'
_cell_volume   600.84354070
_cell_formula_units_Z   2
loop_
 _symmetry_equiv_pos_site_id
 _symmetry_equiv_pos_as_xyz
  1  'x, y, z'
loop_
 _atom_site_type_symbol
 _atom_site_label
 _atom_site_symmetry_multiplicity
 _atom_site_fract_x
 _atom_site_fract_y
 _atom_site_fract_z
 _atom_site_occupancy
  Cs  Cs0  1  0.49981441  0.24977881  0.49985892  1
  Cs  Cs1  1  0.99981111  0.25014241  0.00012510  1
  Cs  Cs2  1  0.50018028  0.74977841  0.50013865  1
  Cs  Cs3  1  0.00018399  0.75014201  0.99983799  1
  Zn  Zn4  1  0.49999867  0.99995758  0.99986286  1
  Zn  Zn5  1  0.99999699  0.49996497  0.50011813  1
  Pb  Pb6  1  0.99999792  0.99996427  0.49984649  1
  Pb  Pb7  1  0.49999612  0.49995743  0.00013194  1
  Cl  Cl8  1  0.49981852  0.23315793  0.99926170  1
  Cl  Cl9  1  0.26647705  0.00026586  0.23270796  1
  Cl  Cl10  1  0.73274415  0.00024742  0.23348264  1
  Cl  Cl11  1  0.99983097  0.26676555  0.50071762  1
  Cl  Cl12  1  0.26718107  0.99962282  0.76637560  1
  Cl  Cl13  1  0.73358463  0.99970700  0.76714707  1
  Cl  Cl14  1  0.50017618  0.76676117  0.00065449  1
  Cl  Cl15  1  0.76646969  0.49965376  0.26727558  1
  Cl  Cl16  1  0.23273832  0.49968048  0.26649083  1
  Cl  Cl17  1  0.00016308  0.73316222  0.49931870  1
  Cl  Cl18  1  0.23359097  0.50022070  0.73282440  1
  Cl  Cl19  1  0.76719125  0.50029352  0.73361213  1
