# generated using pymatgen
data_InBiH12C2(I3N)2
_symmetry_space_group_name_H-M   'P 1'
_cell_length_a   8.69180115
_cell_length_b   12.47149494
_cell_length_c   8.51016310
_cell_angle_alpha   91.58319643
_cell_angle_beta   89.97250629
_cell_angle_gamma   89.97761843
_symmetry_Int_Tables_number   1
_chemical_formula_structural   InBiH12C2(I3N)2
_chemical_formula_sum   'In2 Bi2 H24 C4 I12 N4'
_cell_volume   922.14725201
_cell_formula_units_Z   2
loop_
 _symmetry_equiv_pos_site_id
 _symmetry_equiv_pos_as_xyz
  1  'x, y, z'
loop_
 _atom_site_type_symbol
 _atom_site_label
 _atom_site_symmetry_multiplicity
 _atom_site_fract_x
 _atom_site_fract_y
 _atom_site_fract_z
 _atom_site_occupancy
  C  C0  1  0.40596309  0.25055212  0.41903793  1
  C  C1  1  0.90828692  0.24961631  0.08097039  1
  C  C2  1  0.59415334  0.74951588  0.58087102  1
  C  C3  1  0.09155977  0.75031711  0.91906509  1
  N  N4  1  0.54207634  0.25142636  0.52497826  1
  N  N5  1  0.04382864  0.24860284  0.97413839  1
  N  N6  1  0.45804672  0.74862734  0.47491813  1
  N  N7  1  0.95602503  0.75125206  0.02590259  1
  H  H8  1  0.44666017  0.24929373  0.29712451  1
  H  H9  1  0.33769445  0.17873284  0.44071822  1
  H  H10  1  0.33803528  0.32307275  0.44316929  1
  H  H11  1  0.60928121  0.18345924  0.50287945  1
  H  H12  1  0.60980173  0.31835920  0.50427157  1
  H  H13  1  0.51133559  0.25313819  0.64369305  1
  H  H14  1  0.94965665  0.25090790  0.20260599  1
  H  H15  1  0.84026663  0.17709852  0.05737506  1
  H  H16  1  0.83987592  0.32145435  0.05965244  1
  H  H17  1  0.11165361  0.18164822  0.99447636  1
  H  H18  1  0.11113389  0.31653141  0.99579979  1
  H  H19  1  0.01245936  0.24687335  0.85561417  1
  H  H20  1  0.55343536  0.75075266  0.70277895  1
  H  H21  1  0.66209360  0.67699963  0.55673624  1
  H  H22  1  0.66240114  0.82134230  0.55921617  1
  H  H23  1  0.39081737  0.81658492  0.49701990  1
  H  H24  1  0.39033765  0.68168850  0.49561545  1
  H  H25  1  0.48878801  0.74692869  0.35620411  1
  H  H26  1  0.05018287  0.74907365  0.79743271  1
  H  H27  1  0.15955885  0.82283156  0.94272294  1
  H  H28  1  0.15999342  0.67847469  0.94030623  1
  H  H29  1  0.88813553  0.81818362  0.00560467  1
  H  H30  1  0.88877708  0.68329751  0.00419988  1
  H  H31  1  0.98740095  0.75296708  0.14442260  1
  In  In32  1  0.50002467  0.00008981  0.00005801  1
  In  In33  1  0.00008611  0.50011276  0.50021232  1
  Bi  Bi34  1  0.00004193  0.00004156  0.50003735  1
  Bi  Bi35  1  0.49996105  0.50005379  0.00013049  1
  I  I36  1  0.48023360  0.25457087  0.94502137  1
  I  I37  1  0.17267070  0.01755345  0.18429849  1
  I  I38  1  0.68775137  0.01073146  0.33027148  1
  I  I39  1  0.97838276  0.24528362  0.55517234  1
  I  I40  1  0.31231274  0.98929260  0.66976870  1
  I  I41  1  0.82737050  0.98236305  0.81575873  1
  I  I42  1  0.51961567  0.74553804  0.05494016  1
  I  I43  1  0.67278866  0.48262685  0.31557522  1
  I  I44  1  0.18766085  0.48909286  0.16971672  1
  I  I45  1  0.02172005  0.75478223  0.44484646  1
  I  I46  1  0.32745051  0.51748524  0.68445516  1
  I  I47  1  0.81223640  0.51085553  0.83051208  1
