# generated using pymatgen
data_Cs2ZnPtCl6
_symmetry_space_group_name_H-M   'P 1'
_cell_length_a   7.26685146
_cell_length_b   10.90937268
_cell_length_c   7.26778305
_cell_angle_alpha   90.05924983
_cell_angle_beta   90.00053538
_cell_angle_gamma   89.99565877
_symmetry_Int_Tables_number   1
_chemical_formula_structural   Cs2ZnPtCl6
_chemical_formula_sum   'Cs4 Zn2 Pt2 Cl12'
_cell_volume   576.16620681
_cell_formula_units_Z   2
loop_
 _symmetry_equiv_pos_site_id
 _symmetry_equiv_pos_as_xyz
  1  'x, y, z'
loop_
 _atom_site_type_symbol
 _atom_site_label
 _atom_site_symmetry_multiplicity
 _atom_site_fract_x
 _atom_site_fract_y
 _atom_site_fract_z
 _atom_site_occupancy
  Cs  Cs0  1  0.50019371  0.25004840  0.50065253  1
  Cs  Cs1  1  0.00010367  0.24987957  0.99930926  1
  Cs  Cs2  1  0.49980000  0.74998548  0.49962976  1
  Cs  Cs3  1  0.99986799  0.74997274  0.00035277  1
  Zn  Zn4  1  0.49995878  0.99995404  0.00130877  1
  Zn  Zn5  1  0.00008991  0.49995139  0.49878523  1
  Pt  Pt6  1  0.99997453  0.99995398  0.50003267  1
  Pt  Pt7  1  0.50001837  0.49995557  0.99993793  1
  Cl  Cl8  1  0.50009998  0.19840929  0.00055764  1
  Cl  Cl9  1  0.22663548  0.00011248  0.27384749  1
  Cl  Cl10  1  0.77380891  0.00000385  0.27335596  1
  Cl  Cl11  1  0.00016672  0.30149626  0.49940542  1
  Cl  Cl12  1  0.22610334  0.99995160  0.72650831  1
  Cl  Cl13  1  0.77336183  0.99978556  0.72601812  1
  Cl  Cl14  1  0.49986256  0.80150025  0.99958742  1
  Cl  Cl15  1  0.72666074  0.49984898  0.22613491  1
  Cl  Cl16  1  0.27383253  0.49987817  0.22659767  1
  Cl  Cl17  1  0.99985172  0.69840616  0.50037990  1
  Cl  Cl18  1  0.27339603  0.50009545  0.77392280  1
  Cl  Cl19  1  0.72615855  0.50003511  0.77346422  1
