# generated using pymatgen
data_Cs2HfZnCl6
_symmetry_space_group_name_H-M   'P 1'
_cell_length_a   7.86476525
_cell_length_b   11.12209415
_cell_length_c   7.86476427
_cell_angle_alpha   90.02654981
_cell_angle_beta   89.99997254
_cell_angle_gamma   90.00030978
_symmetry_Int_Tables_number   1
_chemical_formula_structural   Cs2HfZnCl6
_chemical_formula_sum   'Cs4 Hf2 Zn2 Cl12'
_cell_volume   687.95177429
_cell_formula_units_Z   2
loop_
 _symmetry_equiv_pos_site_id
 _symmetry_equiv_pos_as_xyz
  1  'x, y, z'
loop_
 _atom_site_type_symbol
 _atom_site_label
 _atom_site_symmetry_multiplicity
 _atom_site_fract_x
 _atom_site_fract_y
 _atom_site_fract_z
 _atom_site_occupancy
  Cs  Cs0  1  0.49980658  0.24979921  0.49986713  1
  Cs  Cs1  1  0.99980217  0.25015612  0.00011775  1
  Cs  Cs2  1  0.50018867  0.74976577  0.50017144  1
  Cs  Cs3  1  0.00019232  0.75012548  0.99980497  1
  Zn  Zn4  1  0.49999970  0.99995638  0.99978077  1
  Zn  Zn5  1  0.99999577  0.49996755  0.50019891  1
  Hf  Hf6  1  0.99999736  0.99996420  0.49987607  1
  Hf  Hf7  1  0.49999632  0.49995760  0.00010238  1
  Cl  Cl8  1  0.49982125  0.27969804  0.99931400  1
  Cl  Cl9  1  0.21999919  0.00034460  0.27916770  1
  Cl  Cl10  1  0.77918495  0.00019207  0.27997875  1
  Cl  Cl11  1  0.99983711  0.22022742  0.50066598  1
  Cl  Cl12  1  0.22070979  0.99967039  0.71988077  1
  Cl  Cl13  1  0.78009335  0.99964766  0.72068922  1
  Cl  Cl14  1  0.50017069  0.72021733  0.00082453  1
  Cl  Cl15  1  0.71998998  0.49957530  0.22081674  1
  Cl  Cl16  1  0.27918139  0.49973620  0.21999586  1
  Cl  Cl17  1  0.00015859  0.77970080  0.49914646  1
  Cl  Cl18  1  0.28010229  0.50027833  0.77928140  1
  Cl  Cl19  1  0.72071790  0.50024386  0.78010801  1
