# generated using pymatgen
data_Cs2ZnSnCl6
_symmetry_space_group_name_H-M   'P 1'
_cell_length_a   7.46323171
_cell_length_b   10.55567724
_cell_length_c   7.46321502
_cell_angle_alpha   89.99645798
_cell_angle_beta   90.00002204
_cell_angle_gamma   89.99993273
_symmetry_Int_Tables_number   1
_chemical_formula_structural   Cs2ZnSnCl6
_chemical_formula_sum   'Cs4 Zn2 Sn2 Cl12'
_cell_volume   587.94808634
_cell_formula_units_Z   2
loop_
 _symmetry_equiv_pos_site_id
 _symmetry_equiv_pos_as_xyz
  1  'x, y, z'
loop_
 _atom_site_type_symbol
 _atom_site_label
 _atom_site_symmetry_multiplicity
 _atom_site_fract_x
 _atom_site_fract_y
 _atom_site_fract_z
 _atom_site_occupancy
  Cs  Cs0  1  0.49979016  0.24974653  0.49982598  1
  Cs  Cs1  1  0.99978603  0.25017464  0.00015869  1
  Cs  Cs2  1  0.50020441  0.74974595  0.50016446  1
  Cs  Cs3  1  0.00020894  0.75017404  0.99981177  1
  Zn  Zn4  1  0.49999871  0.99995163  0.99985605  1
  Zn  Zn5  1  0.99999695  0.49996062  0.50012524  1
  Sn  Sn6  1  0.99999798  0.99996505  0.49983018  1
  Sn  Sn7  1  0.49999592  0.49995720  0.00014805  1
  Cl  Cl8  1  0.49979988  0.23584673  0.99924775  1
  Cl  Cl9  1  0.26380852  0.00027148  0.23537379  1
  Cl  Cl10  1  0.73540281  0.00023249  0.23615771  1
  Cl  Cl11  1  0.99981298  0.26407855  0.50073180  1
  Cl  Cl12  1  0.26449505  0.99963405  0.76368744  1
  Cl  Cl13  1  0.73628053  0.99970913  0.76446760  1
  Cl  Cl14  1  0.50019460  0.76407282  0.00068602  1
  Cl  Cl15  1  0.76380150  0.49965037  0.26461007  1
  Cl  Cl16  1  0.23539730  0.49969725  0.26381539  1
  Cl  Cl17  1  0.00018114  0.73585237  0.49928603  1
  Cl  Cl18  1  0.23628643  0.50021979  0.73550305  1
  Cl  Cl19  1  0.76450552  0.50028366  0.73630174  1
