# generated using pymatgen
data_Cs2ZrZnCl6
_symmetry_space_group_name_H-M   'P 1'
_cell_length_a   7.85790508
_cell_length_b   11.11236991
_cell_length_c   7.85791820
_cell_angle_alpha   90.02682048
_cell_angle_beta   89.99996871
_cell_angle_gamma   90.00030353
_symmetry_Int_Tables_number   1
_chemical_formula_structural   Cs2ZrZnCl6
_chemical_formula_sum   'Cs4 Zr2 Zn2 Cl12'
_cell_volume   686.15293374
_cell_formula_units_Z   2
loop_
 _symmetry_equiv_pos_site_id
 _symmetry_equiv_pos_as_xyz
  1  'x, y, z'
loop_
 _atom_site_type_symbol
 _atom_site_label
 _atom_site_symmetry_multiplicity
 _atom_site_fract_x
 _atom_site_fract_y
 _atom_site_fract_z
 _atom_site_occupancy
  Cs  Cs0  1  0.49983670  0.24984981  0.49990721  1
  Cs  Cs1  1  0.99983297  0.25013057  0.00007613  1
  Cs  Cs2  1  0.50015886  0.74979188  0.50015309  1
  Cs  Cs3  1  0.00016148  0.75007278  0.99982377  1
  Zn  Zn4  1  0.50000029  0.99995780  0.99978310  1
  Zn  Zn5  1  0.99999615  0.49996739  0.50019715  1
  Zr  Zr6  1  0.99999750  0.99996304  0.49987384  1
  Zr  Zr7  1  0.49999622  0.49995789  0.00010479  1
  Cl  Cl8  1  0.49982037  0.27687217  0.99930714  1
  Cl  Cl9  1  0.22280881  0.00034514  0.27636981  1
  Cl  Cl10  1  0.77636379  0.00018601  0.27719264  1
  Cl  Cl11  1  0.99983607  0.22305556  0.50067299  1
  Cl  Cl12  1  0.22350499  0.99966682  0.72269188  1
  Cl  Cl13  1  0.77730818  0.99965378  0.72351036  1
  Cl  Cl14  1  0.50017182  0.72304421  0.00081647  1
  Cl  Cl15  1  0.72280067  0.49957568  0.22361303  1
  Cl  Cl16  1  0.27635985  0.49974249  0.22278177  1
  Cl  Cl17  1  0.00016004  0.77687099  0.49915335  1
  Cl  Cl18  1  0.27731593  0.50027270  0.77646174  1
  Cl  Cl19  1  0.72351466  0.50024766  0.77729855  1
