# generated using pymatgen
data_Cs2SrZnCl6
_symmetry_space_group_name_H-M   'P 1'
_cell_length_a   7.51837128
_cell_length_b   10.63553122
_cell_length_c   7.51835458
_cell_angle_alpha   89.99807623
_cell_angle_beta   89.99998927
_cell_angle_gamma   89.99997675
_symmetry_Int_Tables_number   1
_chemical_formula_structural   Cs2SrZnCl6
_chemical_formula_sum   'Cs4 Sr2 Zn2 Cl12'
_cell_volume   601.18170968
_cell_formula_units_Z   2
loop_
 _symmetry_equiv_pos_site_id
 _symmetry_equiv_pos_as_xyz
  1  'x, y, z'
loop_
 _atom_site_type_symbol
 _atom_site_label
 _atom_site_symmetry_multiplicity
 _atom_site_fract_x
 _atom_site_fract_y
 _atom_site_fract_z
 _atom_site_occupancy
  Cs  Cs0  1  0.49981625  0.24977716  0.49986117  1
  Cs  Cs1  1  0.99981268  0.25014444  0.00012277  1
  Cs  Cs2  1  0.50017843  0.74977667  0.50013972  1
  Cs  Cs3  1  0.00018227  0.75014403  0.99983699  1
  Zn  Zn4  1  0.49999849  0.99995602  0.99987648  1
  Zn  Zn5  1  0.99999720  0.49996345  0.50010465  1
  Sr  Sr6  1  0.99999768  0.99996444  0.49985731  1
  Sr  Sr7  1  0.49999625  0.49995808  0.00012079  1
  Cl  Cl8  1  0.49982253  0.23331845  0.99925882  1
  Cl  Cl9  1  0.26630606  0.00026833  0.23287738  1
  Cl  Cl10  1  0.73291637  0.00025008  0.23365035  1
  Cl  Cl11  1  0.99983488  0.26660440  0.50072042  1
  Cl  Cl12  1  0.26700886  0.99962211  0.76620176  1
  Cl  Cl13  1  0.73375550  0.99970430  0.76697130  1
  Cl  Cl14  1  0.50017215  0.76659991  0.00065802  1
  Cl  Cl15  1  0.76629937  0.49965194  0.26710647  1
  Cl  Cl16  1  0.23291060  0.49967861  0.26632310  1
  Cl  Cl17  1  0.00015926  0.73332291  0.49931489  1
  Cl  Cl18  1  0.23376182  0.50022398  0.73300010  1
  Cl  Cl19  1  0.76701872  0.50029503  0.73378631  1
