# generated using pymatgen
data_Cs2TlGaCl6
_symmetry_space_group_name_H-M   'P 1'
_cell_length_a   7.66278015
_cell_length_b   10.83338723
_cell_length_c   7.66275605
_cell_angle_alpha   89.99607797
_cell_angle_beta   90.00002497
_cell_angle_gamma   89.99980718
_symmetry_Int_Tables_number   1
_chemical_formula_structural   Cs2TlGaCl6
_chemical_formula_sum   'Cs4 Tl2 Ga2 Cl12'
_cell_volume   636.11499158
_cell_formula_units_Z   2
loop_
 _symmetry_equiv_pos_site_id
 _symmetry_equiv_pos_as_xyz
  1  'x, y, z'
loop_
 _atom_site_type_symbol
 _atom_site_label
 _atom_site_symmetry_multiplicity
 _atom_site_fract_x
 _atom_site_fract_y
 _atom_site_fract_z
 _atom_site_occupancy
  Cs  Cs0  1  0.49991954  0.24990800  0.49993534  1
  Cs  Cs1  1  0.99991799  0.25002131  0.00004780  1
  Cs  Cs2  1  0.50007492  0.74990822  0.50003721  1
  Cs  Cs3  1  0.00007731  0.75002142  0.99994299  1
  Ga  Ga4  1  0.49999728  0.99995926  0.99988702  1
  Ga  Ga5  1  0.99999725  0.49996225  0.50009070  1
  Tl  Tl6  1  0.99999763  0.99996389  0.49986566  1
  Tl  Tl7  1  0.49999718  0.49996011  0.00011117  1
  Cl  Cl8  1  0.49991241  0.22126845  0.99941998  1
  Cl  Cl9  1  0.27852412  0.00016332  0.22087328  1
  Cl  Cl10  1  0.72094335  0.00021343  0.22139893  1
  Cl  Cl11  1  0.99991548  0.27865255  0.50055982  1
  Cl  Cl12  1  0.27902056  0.99969039  0.77842512  1
  Cl  Cl13  1  0.72149852  0.99976804  0.77894929  1
  Cl  Cl14  1  0.50008297  0.77865010  0.00039508  1
  Cl  Cl15  1  0.77851953  0.49975520  0.27911031  1
  Cl  Cl16  1  0.22093999  0.49970606  0.27857473  1
  Cl  Cl17  1  0.00007858  0.72127101  0.49958180  1
  Cl  Cl18  1  0.22150380  0.50015253  0.72102285  1
  Cl  Cl19  1  0.77902696  0.50022880  0.72155975  1
