# generated using pymatgen
data_TlInH12C2(I3N)2
_symmetry_space_group_name_H-M   'P 1'
_cell_length_a   8.60717172
_cell_length_b   12.42305753
_cell_length_c   8.42978697
_cell_angle_alpha   87.77163458
_cell_angle_beta   90.00055469
_cell_angle_gamma   90.00634991
_symmetry_Int_Tables_number   1
_chemical_formula_structural   TlInH12C2(I3N)2
_chemical_formula_sum   'Tl2 In2 H24 C4 I12 N4'
_cell_volume   900.69347864
_cell_formula_units_Z   2
loop_
 _symmetry_equiv_pos_site_id
 _symmetry_equiv_pos_as_xyz
  1  'x, y, z'
loop_
 _atom_site_type_symbol
 _atom_site_label
 _atom_site_symmetry_multiplicity
 _atom_site_fract_x
 _atom_site_fract_y
 _atom_site_fract_z
 _atom_site_occupancy
  C  C0  1  0.40144157  0.25108508  0.41507760  1
  C  C1  1  0.90149619  0.24901133  0.08518785  1
  C  C2  1  0.59869336  0.74896061  0.58484973  1
  C  C3  1  0.09837144  0.75095161  0.91486165  1
  N  N4  1  0.53999475  0.25016314  0.52026299  1
  N  N5  1  0.03996846  0.24982137  0.97983538  1
  N  N6  1  0.46014058  0.74987687  0.47964568  1
  N  N7  1  0.95994024  0.75008808  0.02018821  1
  H  H8  1  0.44090148  0.25190724  0.29143120  1
  H  H9  1  0.33310372  0.17831989  0.44159012  1
  H  H10  1  0.33284110  0.32316853  0.43649147  1
  H  H11  1  0.60804665  0.18316359  0.49882794  1
  H  H12  1  0.60752341  0.31870752  0.49684372  1
  H  H13  1  0.51041597  0.24766387  0.64061970  1
  H  H14  1  0.94109382  0.24823494  0.20878141  1
  H  H15  1  0.83282393  0.17690936  0.06393164  1
  H  H16  1  0.83320662  0.32175707  0.05866785  1
  H  H17  1  0.10741506  0.18128594  0.00323794  1
  H  H18  1  0.10810416  0.31682391  0.00117168  1
  H  H19  1  0.01026033  0.25231381  0.85952871  1
  H  H20  1  0.55924013  0.74813975  0.70847938  1
  H  H21  1  0.66732322  0.67690160  0.56341967  1
  H  H22  1  0.66701136  0.82175135  0.55832067  1
  H  H23  1  0.39207969  0.81685068  0.50107253  1
  H  H24  1  0.39263701  0.68131475  0.50307339  1
  H  H25  1  0.48972708  0.75236450  0.35929221  1
  H  H26  1  0.05879096  0.75176792  0.79125805  1
  H  H27  1  0.16704997  0.82306370  0.93616305  1
  H  H28  1  0.16670417  0.67820872  0.94131702  1
  H  H29  1  0.89242367  0.81860450  0.99683499  1
  H  H30  1  0.89182598  0.68305896  0.99883899  1
  H  H31  1  0.98963169  0.74757867  0.14052128  1
  In  In32  1  0.49998281  0.00003037  0.00000063  1
  In  In33  1  1.00002484  0.50004945  0.50009713  1
  Tl  Tl34  1  0.00001000  0.00001678  0.50005289  1
  Tl  Tl35  1  0.49988920  0.50000389  0.00014016  1
  I  I36  1  0.47700308  0.23588020  0.94046860  1
  I  I37  1  0.19661852  0.00707365  0.15880314  1
  I  I38  1  0.65865119  0.01966960  0.30817682  1
  I  I39  1  0.97693375  0.26416417  0.55962760  1
  I  I40  1  0.34139966  0.98031116  0.69186519  1
  I  I41  1  0.80338875  0.99293855  0.84126560  1
  I  I42  1  0.52295295  0.76414074  0.05948753  1
  I  I43  1  0.69666358  0.49291578  0.34121274  1
  I  I44  1  0.15857018  0.48031919  0.19194615  1
  I  I45  1  0.02315795  0.73587007  0.44041065  1
  I  I46  1  0.30338689  0.50718449  0.65889140  1
  I  I47  1  0.84116260  0.51969137  0.80822669  1
