# generated using pymatgen
data_Cs2GaIrCl6
_symmetry_space_group_name_H-M   'P 1'
_cell_length_a   7.35373611
_cell_length_b   10.38602164
_cell_length_c   7.35374527
_cell_angle_alpha   90.00770665
_cell_angle_beta   90.00009223
_cell_angle_gamma   90.00019953
_symmetry_Int_Tables_number   1
_chemical_formula_structural   Cs2GaIrCl6
_chemical_formula_sum   'Cs4 Ga2 Ir2 Cl12'
_cell_volume   561.65010267
_cell_formula_units_Z   2
loop_
 _symmetry_equiv_pos_site_id
 _symmetry_equiv_pos_as_xyz
  1  'x, y, z'
loop_
 _atom_site_type_symbol
 _atom_site_label
 _atom_site_symmetry_multiplicity
 _atom_site_fract_x
 _atom_site_fract_y
 _atom_site_fract_z
 _atom_site_occupancy
  Cs  Cs0  1  0.49988457  0.24990650  0.49986241  1
  Cs  Cs1  1  0.99988292  0.25001676  0.00012172  1
  Cs  Cs2  1  0.50010855  0.74990645  0.50005264  1
  Cs  Cs3  1  0.00011306  0.75001728  0.99992577  1
  Ga  Ga4  1  0.50000106  0.99996508  0.99973076  1
  Ga  Ga5  1  0.99999590  0.49996784  0.50024232  1
  Ir  Ir6  1  0.99999657  0.99996110  0.49992954  1
  Ir  Ir7  1  0.49999756  0.49995998  0.00004865  1
  Cl  Cl8  1  0.49987049  0.27010198  0.99961885  1
  Cl  Cl9  1  0.22945966  0.00014869  0.27013210  1
  Cl  Cl10  1  0.77016316  0.00007964  0.27050041  1
  Cl  Cl11  1  0.99987587  0.22981915  0.50036430  1
  Cl  Cl12  1  0.22980387  0.99983316  0.72940342  1
  Cl  Cl13  1  0.77055785  0.99978041  0.72977119  1
  Cl  Cl14  1  0.50012485  0.72981775  0.00046526  1
  Cl  Cl15  1  0.72945706  0.49977228  0.22985108  1
  Cl  Cl16  1  0.27016326  0.49984307  0.22947439  1
  Cl  Cl17  1  0.00011724  0.77010284  0.49950955  1
  Cl  Cl18  1  0.27056209  0.50013976  0.77020373  1
  Cl  Cl19  1  0.72980977  0.50008459  0.77058073  1
