# generated using pymatgen
data_Cs2GaSbCl6
_symmetry_space_group_name_H-M   'P 1'
_cell_length_a   7.71813494
_cell_length_b   10.90947718
_cell_length_c   7.71813503
_cell_angle_alpha   90.00544171
_cell_angle_beta   89.99996806
_cell_angle_gamma   90.00026098
_symmetry_Int_Tables_number   1
_chemical_formula_structural   Cs2GaSbCl6
_chemical_formula_sum   'Cs4 Ga2 Sb2 Cl12'
_cell_volume   649.87327194
_cell_formula_units_Z   2
loop_
 _symmetry_equiv_pos_site_id
 _symmetry_equiv_pos_as_xyz
  1  'x, y, z'
loop_
 _atom_site_type_symbol
 _atom_site_label
 _atom_site_symmetry_multiplicity
 _atom_site_fract_x
 _atom_site_fract_y
 _atom_site_fract_z
 _atom_site_occupancy
  Cs  Cs0  1  0.49982035  0.24979288  0.49983576  1
  Cs  Cs1  1  0.99981621  0.25013214  0.00014916  1
  Cs  Cs2  1  0.50017386  0.74979312  0.50016411  1
  Cs  Cs3  1  0.00017780  0.75013216  0.99981567  1
  Ga  Ga4  1  0.49999971  0.99995884  0.99975476  1
  Ga  Ga5  1  0.99999617  0.49996680  0.50022210  1
  Sb  Sb6  1  0.99999682  0.99996443  0.49985879  1
  Sb  Sb7  1  0.49999767  0.49995820  0.00011903  1
  Cl  Cl8  1  0.49985006  0.25608588  0.99944731  1
  Cl  Cl9  1  0.24349359  0.00022182  0.25586919  1
  Cl  Cl10  1  0.75591429  0.00016961  0.25645264  1
  Cl  Cl11  1  0.99986633  0.24383698  0.50052940  1
  Cl  Cl12  1  0.24401094  0.99971220  0.74338799  1
  Cl  Cl13  1  0.75656115  0.99973858  0.74396881  1
  Cl  Cl14  1  0.50014525  0.74382913  0.00058062  1
  Cl  Cl15  1  0.74349239  0.49969456  0.24411353  1
  Cl  Cl16  1  0.25591526  0.49975532  0.24352273  1
  Cl  Cl17  1  0.00012803  0.75609361  0.49939303  1
  Cl  Cl18  1  0.25656727  0.50018627  0.75600654  1
  Cl  Cl19  1  0.74402221  0.50020179  0.75659763  1
