# generated using pymatgen
data_Cs2GaAgCl6
_symmetry_space_group_name_H-M   'P 1'
_cell_length_a   7.32211864
_cell_length_b   10.34892102
_cell_length_c   7.32200907
_cell_angle_alpha   89.99074718
_cell_angle_beta   90.00032352
_cell_angle_gamma   89.99969925
_symmetry_Int_Tables_number   1
_chemical_formula_structural   Cs2GaAgCl6
_chemical_formula_sum   'Cs4 Ga2 Ag2 Cl12'
_cell_volume   554.83275361
_cell_formula_units_Z   2
loop_
 _symmetry_equiv_pos_site_id
 _symmetry_equiv_pos_as_xyz
  1  'x, y, z'
loop_
 _atom_site_type_symbol
 _atom_site_label
 _atom_site_symmetry_multiplicity
 _atom_site_fract_x
 _atom_site_fract_y
 _atom_site_fract_z
 _atom_site_occupancy
  Cs  Cs0  1  0.49988019  0.24988827  0.49986463  1
  Cs  Cs1  1  0.99987685  0.25003303  0.00011974  1
  Cs  Cs2  1  0.50011375  0.74988702  0.50008029  1
  Cs  Cs3  1  0.00011816  0.75003206  0.99989819  1
  Ga  Ga4  1  0.49999766  0.99996102  0.99987716  1
  Ga  Ga5  1  0.99999716  0.49996340  0.50010057  1
  Ag  Ag6  1  0.99999841  0.99996764  0.49980840  1
  Ag  Ag7  1  0.49999613  0.49996323  0.00016945  1
  Cl  Cl8  1  0.49987201  0.23319699  0.99952194  1
  Cl  Cl9  1  0.26651954  0.00009945  0.23301044  1
  Cl  Cl10  1  0.73305866  0.00012190  0.23342956  1
  Cl  Cl11  1  0.99987717  0.26672511  0.50045829  1
  Cl  Cl12  1  0.26689659  0.99978110  0.76643452  1
  Cl  Cl13  1  0.73351139  0.99983833  0.76685114  1
  Cl  Cl14  1  0.50012318  0.76672342  0.00036938  1
  Cl  Cl15  1  0.76651452  0.49982169  0.26696865  1
  Cl  Cl16  1  0.23305574  0.49979883  0.26654924  1
  Cl  Cl17  1  0.00011676  0.73319824  0.49960448  1
  Cl  Cl18  1  0.23351697  0.50008363  0.73312573  1
  Cl  Cl19  1  0.76690452  0.50013995  0.73354702  1
