# generated using pymatgen
data_Cs2GaRhCl6
_symmetry_space_group_name_H-M   'P 1'
_cell_length_a   7.30883393
_cell_length_b   10.32144793
_cell_length_c   7.30884293
_cell_angle_alpha   90.00692373
_cell_angle_beta   90.00002742
_cell_angle_gamma   90.00013481
_symmetry_Int_Tables_number   1
_chemical_formula_structural   Cs2GaRhCl6
_chemical_formula_sum   'Cs4 Ga2 Rh2 Cl12'
_cell_volume   551.36265288
_cell_formula_units_Z   2
loop_
 _symmetry_equiv_pos_site_id
 _symmetry_equiv_pos_as_xyz
  1  'x, y, z'
loop_
 _atom_site_type_symbol
 _atom_site_label
 _atom_site_symmetry_multiplicity
 _atom_site_fract_x
 _atom_site_fract_y
 _atom_site_fract_z
 _atom_site_occupancy
  Cs  Cs0  1  0.49988497  0.24990398  0.49986614  1
  Cs  Cs1  1  0.99988255  0.25001848  0.00011741  1
  Cs  Cs2  1  0.50010822  0.74990268  0.50005846  1
  Cs  Cs3  1  0.00011327  0.75001708  0.99992012  1
  Ga  Ga4  1  0.50000101  0.99996539  0.99974487  1
  Ga  Ga5  1  0.99999564  0.49996870  0.50022922  1
  Rh  Rh6  1  0.99999660  0.99996146  0.49992490  1
  Rh  Rh7  1  0.49999774  0.49996049  0.00005321  1
  Cl  Cl8  1  0.49987799  0.26763710  0.99965284  1
  Cl  Cl9  1  0.23182011  0.00013044  0.26776613  1
  Cl  Cl10  1  0.76780611  0.00006963  0.26813185  1
  Cl  Cl11  1  0.99988272  0.23228440  0.50032905  1
  Cl  Cl12  1  0.23217046  0.99984113  0.73176548  1
  Cl  Cl13  1  0.76818756  0.99980221  0.73213070  1
  Cl  Cl14  1  0.50011629  0.73228259  0.00042171  1
  Cl  Cl15  1  0.73181550  0.49979180  0.23221455  1
  Cl  Cl16  1  0.26780771  0.49985266  0.23184131  1
  Cl  Cl17  1  0.00011118  0.76763708  0.49955313  1
  Cl  Cl18  1  0.26819492  0.50011829  0.76784678  1
  Cl  Cl19  1  0.73217482  0.50007874  0.76822094  1
