# generated using pymatgen
data_Cs2GaAsCl6
_symmetry_space_group_name_H-M   'P 1'
_cell_length_a   7.50157264
_cell_length_b   10.60560224
_cell_length_c   7.50157169
_cell_angle_alpha   90.00736372
_cell_angle_beta   89.99994159
_cell_angle_gamma   90.00018429
_symmetry_Int_Tables_number   1
_chemical_formula_structural   Cs2GaAsCl6
_chemical_formula_sum   'Cs4 Ga2 As2 Cl12'
_cell_volume   596.81525347
_cell_formula_units_Z   2
loop_
 _symmetry_equiv_pos_site_id
 _symmetry_equiv_pos_as_xyz
  1  'x, y, z'
loop_
 _atom_site_type_symbol
 _atom_site_label
 _atom_site_symmetry_multiplicity
 _atom_site_fract_x
 _atom_site_fract_y
 _atom_site_fract_z
 _atom_site_occupancy
  Cs  Cs0  1  0.49992322  0.24990531  0.49995961  1
  Cs  Cs1  1  0.99992107  0.25001551  0.00002273  1
  Cs  Cs2  1  0.50007170  0.74990624  0.50007683  1
  Cs  Cs3  1  0.00007298  0.75001590  0.99990229  1
  Ga  Ga4  1  0.50000100  0.99995888  0.99971689  1
  Ga  Ga5  1  0.99999247  0.49996324  0.50026213  1
  As  As6  1  0.99999775  0.99996226  0.49983439  1
  As  As7  1  0.49999577  0.49995985  0.00014409  1
  Cl  Cl8  1  0.49992527  0.26183971  0.99974745  1
  Cl  Cl9  1  0.23773455  0.00010501  0.26188513  1
  Cl  Cl10  1  0.76194629  0.00006463  0.26219231  1
  Cl  Cl11  1  0.99992965  0.23808167  0.50023240  1
  Cl  Cl12  1  0.23816354  0.99985074  0.73779290  1
  Cl  Cl13  1  0.76213303  0.99982808  0.73810419  1
  Cl  Cl14  1  0.50006851  0.73808115  0.00036082  1
  Cl  Cl15  1  0.73773767  0.49981850  0.23809731  1
  Cl  Cl16  1  0.26195148  0.49986009  0.23778262  1
  Cl  Cl17  1  0.00006542  0.76184053  0.49961473  1
  Cl  Cl18  1  0.26214112  0.50009562  0.76187611  1
  Cl  Cl19  1  0.73817289  0.50007142  0.76218388  1
