# generated using pymatgen
data_Cs2BaGeCl6
_symmetry_space_group_name_H-M   'P 1'
_cell_length_a   7.92983072
_cell_length_b   11.21420368
_cell_length_c   7.92987122
_cell_angle_alpha   89.99880180
_cell_angle_beta   90.00002411
_cell_angle_gamma   89.99997530
_symmetry_Int_Tables_number   1
_chemical_formula_structural   Cs2BaGeCl6
_chemical_formula_sum   'Cs4 Ba2 Ge2 Cl12'
_cell_volume   705.17757129
_cell_formula_units_Z   2
loop_
 _symmetry_equiv_pos_site_id
 _symmetry_equiv_pos_as_xyz
  1  'x, y, z'
loop_
 _atom_site_type_symbol
 _atom_site_label
 _atom_site_symmetry_multiplicity
 _atom_site_fract_x
 _atom_site_fract_y
 _atom_site_fract_z
 _atom_site_occupancy
  Cs  Cs0  1  0.49977100  0.24972470  0.49981915  1
  Cs  Cs1  1  0.99976672  0.25019713  0.00016584  1
  Cs  Cs2  1  0.50022340  0.74972409  0.50018641  1
  Cs  Cs3  1  0.00022837  0.75019635  0.99978973  1
  Ge  Ge4  1  0.49999830  0.99995760  0.99984945  1
  Ge  Ge5  1  0.99999681  0.49996509  0.50012896  1
  Ba  Ba6  1  0.99999817  0.99996555  0.49981493  1
  Ba  Ba7  1  0.49999571  0.49995665  0.00016339  1
  Cl  Cl8  1  0.49977356  0.23521489  0.99914405  1
  Cl  Cl9  1  0.26437460  0.00033056  0.23471789  1
  Cl  Cl10  1  0.73472403  0.00027667  0.23561590  1
  Cl  Cl11  1  0.99978917  0.26470774  0.50083525  1
  Cl  Cl12  1  0.26510611  0.99957532  0.76421061  1
  Cl  Cl13  1  0.73578257  0.99966267  0.76510179  1
  Cl  Cl14  1  0.50022033  0.76470007  0.00079697  1
  Cl  Cl15  1  0.76436649  0.49958925  0.26526650  1
  Cl  Cl16  1  0.23471733  0.49965266  0.26435806  1
  Cl  Cl17  1  0.00020547  0.73522248  0.49917370  1
  Cl  Cl18  1  0.23578928  0.50026546  0.73486789  1
  Cl  Cl19  1  0.76511798  0.50033940  0.73578232  1
