# generated using pymatgen
data_InH12AuC2(I3N)2
_symmetry_space_group_name_H-M   'P 1'
_cell_length_a   8.15691520
_cell_length_b   12.33488399
_cell_length_c   8.41544089
_cell_angle_alpha   87.59749539
_cell_angle_beta   90.02837099
_cell_angle_gamma   90.02017444
_symmetry_Int_Tables_number   1
_chemical_formula_structural   InH12AuC2(I3N)2
_chemical_formula_sum   'In2 H24 Au2 C4 I12 N4'
_cell_volume   845.97182637
_cell_formula_units_Z   2
loop_
 _symmetry_equiv_pos_site_id
 _symmetry_equiv_pos_as_xyz
  1  'x, y, z'
loop_
 _atom_site_type_symbol
 _atom_site_label
 _atom_site_symmetry_multiplicity
 _atom_site_fract_x
 _atom_site_fract_y
 _atom_site_fract_z
 _atom_site_occupancy
  C  C0  1  0.40324130  0.25063164  0.41390329  1
  C  C1  1  0.90417097  0.24949696  0.08677753  1
  C  C2  1  0.59675607  0.74937036  0.58610899  1
  C  C3  1  0.09583460  0.75050703  0.91323381  1
  N  N4  1  0.54663111  0.24792024  0.52223212  1
  N  N5  1  0.04697578  0.25208313  0.97785467  1
  N  N6  1  0.45336528  0.75208311  0.47778226  1
  N  N7  1  0.95303057  0.74791700  0.02215759  1
  H  H8  1  0.44712280  0.25326636  0.29081518  1
  H  H9  1  0.32956576  0.17765584  0.43795303  1
  H  H10  1  0.33143298  0.32328722  0.43569940  1
  H  H11  1  0.61926222  0.18044542  0.50204142  1
  H  H12  1  0.61908144  0.31641419  0.50136929  1
  H  H13  1  0.51323068  0.24477950  0.64222226  1
  H  H14  1  0.94870320  0.24693411  0.20966243  1
  H  H15  1  0.83208340  0.17683446  0.06539154  1
  H  H16  1  0.83050866  0.32248015  0.06291606  1
  H  H17  1  0.11936314  0.18355780  0.99851464  1
  H  H18  1  0.11986952  0.31954024  0.99775106  1
  H  H19  1  0.01299119  0.25521279  0.85801564  1
  H  H20  1  0.55287396  0.74673716  0.70919842  1
  H  H21  1  0.66856270  0.67671496  0.56431484  1
  H  H22  1  0.67043212  0.82234618  0.56205910  1
  H  H23  1  0.38073551  0.81955703  0.49797089  1
  H  H24  1  0.38091496  0.68358845  0.49864435  1
  H  H25  1  0.48676659  0.75522257  0.35779024  1
  H  H26  1  0.05130220  0.75307031  0.79034932  1
  H  H27  1  0.16791930  0.82317067  0.93462155  1
  H  H28  1  0.16950029  0.67752508  0.93709343  1
  H  H29  1  0.88063939  0.81644071  0.00149862  1
  H  H30  1  0.88014011  0.68045814  0.00226030  1
  H  H31  1  0.98701534  0.74478761  0.14199619  1
  In  In32  1  0.50000015  0.00000329  0.00000835  1
  In  In33  1  0.00000118  0.50000179  0.49999953  1
  Au  Au34  1  0.99999975  0.00000223  0.50001040  1
  Au  Au35  1  0.49999814  0.50001249  0.99999981  1
  I  I36  1  0.48022732  0.23377776  0.94256345  1
  I  I37  1  0.20215418  0.00516315  0.17801143  1
  I  I38  1  0.71374252  0.01409544  0.33844054  1
  I  I39  1  0.97970604  0.26624555  0.55785153  1
  I  I40  1  0.28625865  0.98590797  0.66157720  1
  I  I41  1  0.79784742  0.99483943  0.82200708  1
  I  I42  1  0.51977665  0.76622726  0.05745204  1
  I  I43  1  0.70212662  0.49475655  0.32181721  1
  I  I44  1  0.21388783  0.48601172  0.16163388  1
  I  I45  1  0.02029077  0.73375855  0.44216034  1
  I  I46  1  0.29787126  0.50524551  0.67819120  1
  I  I47  1  0.78611213  0.51399315  0.83837317  1
