# generated using pymatgen
data_Cs2SnGeCl6
_symmetry_space_group_name_H-M   'P 1'
_cell_length_a   7.66191031
_cell_length_b   10.83423152
_cell_length_c   7.66191908
_cell_angle_alpha   89.99884633
_cell_angle_beta   90.00000952
_cell_angle_gamma   89.99998191
_symmetry_Int_Tables_number   1
_chemical_formula_structural   Cs2SnGeCl6
_chemical_formula_sum   'Cs4 Sn2 Ge2 Cl12'
_cell_volume   636.02287690
_cell_formula_units_Z   2
loop_
 _symmetry_equiv_pos_site_id
 _symmetry_equiv_pos_as_xyz
  1  'x, y, z'
loop_
 _atom_site_type_symbol
 _atom_site_label
 _atom_site_symmetry_multiplicity
 _atom_site_fract_x
 _atom_site_fract_y
 _atom_site_fract_z
 _atom_site_occupancy
  Cs  Cs0  1  0.49978722  0.24974580  0.49982190  1
  Cs  Cs1  1  0.99978334  0.25017652  0.00016303  1
  Cs  Cs2  1  0.50020726  0.74974515  0.50016425  1
  Cs  Cs3  1  0.00021193  0.75017579  0.99981249  1
  Ge  Ge4  1  0.49999785  0.99995697  0.99987133  1
  Ge  Ge5  1  0.99999708  0.49996298  0.50010750  1
  Sn  Sn6  1  0.99999772  0.99996396  0.49985328  1
  Sn  Sn7  1  0.49999626  0.49995722  0.00012528  1
  Cl  Cl8  1  0.49979378  0.24355407  0.99924960  1
  Cl  Cl9  1  0.25606401  0.00029373  0.24309447  1
  Cl  Cl10  1  0.74311356  0.00024003  0.24391471  1
  Cl  Cl11  1  0.99980705  0.25637220  0.50073083  1
  Cl  Cl12  1  0.25671218  0.99961861  0.75588193  1
  Cl  Cl13  1  0.74409833  0.99969139  0.75669564  1
  Cl  Cl14  1  0.50020074  0.75636298  0.00071040  1
  Cl  Cl15  1  0.75605603  0.49962542  0.25688802  1
  Cl  Cl16  1  0.24310689  0.49968748  0.25605984  1
  Cl  Cl17  1  0.00018755  0.74356282  0.49926159  1
  Cl  Cl18  1  0.24410358  0.50023519  0.74327417  1
  Cl  Cl19  1  0.75672302  0.50029600  0.74410854  1
