# generated using pymatgen
data_Cs2CdGeCl6
_symmetry_space_group_name_H-M   'P 1'
_cell_length_a   7.48261879
_cell_length_b   10.57763231
_cell_length_c   7.48260950
_cell_angle_alpha   90.00041686
_cell_angle_beta   89.99999849
_cell_angle_gamma   90.00000023
_symmetry_Int_Tables_number   1
_chemical_formula_structural   Cs2CdGeCl6
_chemical_formula_sum   'Cs4 Cd2 Ge2 Cl12'
_cell_volume   592.23649657
_cell_formula_units_Z   2
loop_
 _symmetry_equiv_pos_site_id
 _symmetry_equiv_pos_as_xyz
  1  'x, y, z'
loop_
 _atom_site_type_symbol
 _atom_site_label
 _atom_site_symmetry_multiplicity
 _atom_site_fract_x
 _atom_site_fract_y
 _atom_site_fract_z
 _atom_site_occupancy
  Cs  Cs0  1  0.49979393  0.24974626  0.49982360  1
  Cs  Cs1  1  0.99978993  0.25017376  0.00016109  1
  Cs  Cs2  1  0.50020062  0.74974573  0.50015825  1
  Cs  Cs3  1  0.00020520  0.75017305  0.99981841  1
  Ge  Ge4  1  0.49999859  0.99995769  0.99983576  1
  Ge  Ge5  1  0.99999658  0.49996502  0.50014281  1
  Cd  Cd6  1  0.99999809  0.99996589  0.49983231  1
  Cd  Cd7  1  0.49999599  0.49995759  0.00014715  1
  Cl  Cl8  1  0.49978988  0.24970629  0.99925346  1
  Cl  Cl9  1  0.24990268  0.00028796  0.24927032  1
  Cl  Cl10  1  0.74929270  0.00023068  0.25007026  1
  Cl  Cl11  1  0.99980370  0.25021807  0.50072673  1
  Cl  Cl12  1  0.25059309  0.99963124  0.74977663  1
  Cl  Cl13  1  0.75019841  0.99969622  0.75057262  1
  Cl  Cl14  1  0.50020410  0.75021206  0.00072586  1
  Cl  Cl15  1  0.74989565  0.49963235  0.25071365  1
  Cl  Cl16  1  0.24928666  0.49969741  0.24990284  1
  Cl  Cl17  1  0.00019082  0.74971209  0.49924570  1
  Cl  Cl18  1  0.25020462  0.50023083  0.74939782  1
  Cl  Cl19  1  0.75060410  0.50028413  0.75021353  1
