# generated using pymatgen
data_Cs2SrPbCl6
_symmetry_space_group_name_H-M   'P 1'
_cell_length_a   7.98513838
_cell_length_b   11.29649059
_cell_length_c   7.98517760
_cell_angle_alpha   89.99763965
_cell_angle_beta   89.99997805
_cell_angle_gamma   89.99989629
_symmetry_Int_Tables_number   1
_chemical_formula_structural   Cs2SrPbCl6
_chemical_formula_sum   'Cs4 Sr2 Pb2 Cl12'
_cell_volume   720.29528327
_cell_formula_units_Z   2
loop_
 _symmetry_equiv_pos_site_id
 _symmetry_equiv_pos_as_xyz
  1  'x, y, z'
loop_
 _atom_site_type_symbol
 _atom_site_label
 _atom_site_symmetry_multiplicity
 _atom_site_fract_x
 _atom_site_fract_y
 _atom_site_fract_z
 _atom_site_occupancy
  Cs  Cs0  1  0.49973948  0.24969773  0.49974873  1
  Cs  Cs1  1  0.99973400  0.25023158  0.00023849  1
  Cs  Cs2  1  0.50025304  0.74969724  0.50022993  1
  Cs  Cs3  1  0.00026008  0.75023034  0.99974749  1
  Sr  Sr4  1  0.49999892  0.99995572  0.99978900  1
  Sr  Sr5  1  0.99999591  0.49996667  0.50018977  1
  Pb  Pb6  1  0.99999793  0.99996632  0.49978808  1
  Pb  Pb7  1  0.49999523  0.49995533  0.00019058  1
  Cl  Cl8  1  0.49974744  0.24947553  0.99903267  1
  Cl  Cl9  1  0.25006804  0.00041484  0.24891088  1
  Cl  Cl10  1  0.74890208  0.00032797  0.24993693  1
  Cl  Cl11  1  0.99976277  0.25044691  0.50094833  1
  Cl  Cl12  1  0.25088893  0.99950136  0.74987400  1
  Cl  Cl13  1  0.75013078  0.99959549  0.75089600  1
  Cl  Cl14  1  0.50024426  0.75043703  0.00094132  1
  Cl  Cl15  1  0.75006206  0.49950122  0.25107160  1
  Cl  Cl16  1  0.24889531  0.49959829  0.25003692  1
  Cl  Cl17  1  0.00022852  0.74948511  0.49902677  1
  Cl  Cl18  1  0.25013897  0.50032715  0.74907139  1
  Cl  Cl19  1  0.75090160  0.50041250  0.75011993  1
