# generated using pymatgen
data_Cs2SrPtCl6
_symmetry_space_group_name_H-M   'P 1'
_cell_length_a   8.00043947
_cell_length_b   10.27341675
_cell_length_c   8.00066022
_cell_angle_alpha   89.99489741
_cell_angle_beta   79.94096484
_cell_angle_gamma   89.99415889
_symmetry_Int_Tables_number   1
_chemical_formula_structural   Cs2SrPtCl6
_chemical_formula_sum   'Cs4 Sr2 Pt2 Cl12'
_cell_volume   647.48079530
_cell_formula_units_Z   2
loop_
 _symmetry_equiv_pos_site_id
 _symmetry_equiv_pos_as_xyz
  1  'x, y, z'
loop_
 _atom_site_type_symbol
 _atom_site_label
 _atom_site_symmetry_multiplicity
 _atom_site_fract_x
 _atom_site_fract_y
 _atom_site_fract_z
 _atom_site_occupancy
  Cs  Cs0  1  0.49998301  0.24999539  0.49988457  1
  Cs  Cs1  1  0.99998235  0.25010441  0.00009854  1
  Cs  Cs2  1  0.50002236  0.74983264  0.50007913  1
  Cs  Cs3  1  0.00000611  0.74990300  0.99989414  1
  Sr  Sr4  1  0.49999273  0.99996542  0.99998303  1
  Sr  Sr5  1  0.99999861  0.49996639  0.49999567  1
  Pt  Pt6  1  0.00000294  0.99996707  0.49999461  1
  Pt  Pt7  1  0.49998964  0.49996608  0.99998586  1
  Cl  Cl8  1  0.49998823  0.27527589  0.99990682  1
  Cl  Cl9  1  0.22458937  0.99993498  0.27541565  1
  Cl  Cl10  1  0.72593277  0.99993045  0.22592111  1
  Cl  Cl11  1  0.00007745  0.22466439  0.50005747  1
  Cl  Cl12  1  0.27403102  0.99996651  0.77407248  1
  Cl  Cl13  1  0.77542179  -0.00000188  0.72457990  1
  Cl  Cl14  1  0.49999225  0.72465625  0.00006788  1
  Cl  Cl15  1  0.77408473  0.49999232  0.27402821  1
  Cl  Cl16  1  0.27544501  0.49994708  0.22460673  1
  Cl  Cl17  1  0.99993360  0.77526959  0.49993679  1
  Cl  Cl18  1  0.22594508  0.49990493  0.72592506  1
  Cl  Cl19  1  0.72452634  0.49998343  0.77535516  1
