# generated using pymatgen
data_Cs2SrOsCl6
_symmetry_space_group_name_H-M   'P 1'
_cell_length_a   7.42103985
_cell_length_b   10.48832745
_cell_length_c   7.42106004
_cell_angle_alpha   89.99952483
_cell_angle_beta   90.00002482
_cell_angle_gamma   89.99998749
_symmetry_Int_Tables_number   1
_chemical_formula_structural   Cs2SrOsCl6
_chemical_formula_sum   'Cs4 Sr2 Os2 Cl12'
_cell_volume   577.61298338
_cell_formula_units_Z   2
loop_
 _symmetry_equiv_pos_site_id
 _symmetry_equiv_pos_as_xyz
  1  'x, y, z'
loop_
 _atom_site_type_symbol
 _atom_site_label
 _atom_site_symmetry_multiplicity
 _atom_site_fract_x
 _atom_site_fract_y
 _atom_site_fract_z
 _atom_site_occupancy
  Cs  Cs0  1  0.49979992  0.24977093  0.49981044  1
  Cs  Cs1  1  0.99979675  0.25015054  0.00017398  1
  Cs  Cs2  1  0.50019412  0.74976986  0.50012361  1
  Cs  Cs3  1  0.00019881  0.75014930  0.99985336  1
  Sr  Sr4  1  0.49999836  0.99995836  0.99985282  1
  Sr  Sr5  1  0.99999643  0.49996433  0.50012545  1
  Os  Os6  1  0.99999746  0.99996358  0.49989786  1
  Os  Os7  1  0.49999693  0.49995939  0.00008040  1
  Cl  Cl8  1  0.49980560  0.27006835  0.99933695  1
  Cl  Cl9  1  0.22954768  0.00026899  0.26965269  1
  Cl  Cl10  1  0.76970153  0.00021252  0.27039834  1
  Cl  Cl11  1  0.99981864  0.22985496  0.50064428  1
  Cl  Cl12  1  0.23022297  0.99967365  0.72943135  1
  Cl  Cl13  1  0.77051604  0.99969428  0.73017428  1
  Cl  Cl14  1  0.50018824  0.72985002  0.00072305  1
  Cl  Cl15  1  0.72954050  0.49965124  0.23033231  1
  Cl  Cl16  1  0.26969534  0.49971588  0.22957413  1
  Cl  Cl17  1  0.00017612  0.77007325  0.49924951  1
  Cl  Cl18  1  0.27052161  0.50023230  0.76979652  1
  Cl  Cl19  1  0.73023232  0.50024261  0.77055748  1
