# generated using pymatgen
data_BeHgH12C2(I3N)2
_symmetry_space_group_name_H-M   'P 1'
_cell_length_a   7.50112377
_cell_length_b   13.26268119
_cell_length_c   8.54326010
_cell_angle_alpha   91.76823011
_cell_angle_beta   89.93866551
_cell_angle_gamma   89.93283188
_symmetry_Int_Tables_number   1
_chemical_formula_structural   BeHgH12C2(I3N)2
_chemical_formula_sum   'Be2 Hg2 H24 C4 I12 N4'
_cell_volume   849.52052417
_cell_formula_units_Z   2
loop_
 _symmetry_equiv_pos_site_id
 _symmetry_equiv_pos_as_xyz
  1  'x, y, z'
loop_
 _atom_site_type_symbol
 _atom_site_label
 _atom_site_symmetry_multiplicity
 _atom_site_fract_x
 _atom_site_fract_y
 _atom_site_fract_z
 _atom_site_occupancy
  C  C0  1  0.42138897  0.25851188  0.36325983  1
  C  C1  1  0.88532871  0.24515440  0.14113121  1
  C  C2  1  0.61430140  0.74502359  0.64183183  1
  C  C3  1  0.07966540  0.75886465  0.86306348  1
  N  N4  1  0.56937700  0.23589362  0.47166785  1
  N  N5  1  0.02874350  0.23656077  0.02216025  1
  N  N6  1  0.46829731  0.73679374  0.52557899  1
  N  N7  1  0.92983055  0.73682982  0.97004463  1
  H  H8  1  0.47380212  0.26193867  0.24367709  1
  H  H9  1  0.32307352  0.19780954  0.36938390  1
  H  H10  1  0.36116467  0.33082495  0.39958427  1
  H  H11  1  0.62685138  0.16546429  0.44393647  1
  H  H12  1  0.67008960  0.28953195  0.46914562  1
  H  H13  1  0.52713533  0.23470087  0.58880728  1
  H  H14  1  0.94638596  0.24900622  0.25781997  1
  H  H15  1  0.80030448  0.17825380  0.12944665  1
  H  H16  1  0.80864275  0.31381240  0.12071120  1
  H  H17  1  0.10221832  0.16973280  0.03462531  1
  H  H18  1  0.11731635  0.29641961  0.03331624  1
  H  H19  1  0.98157789  0.23758174  0.90709805  1
  H  H20  1  0.55573085  0.74853256  0.75966444  1
  H  H21  1  0.69940033  0.67817285  0.62804558  1
  H  H22  1  0.69019225  0.81374867  0.62045710  1
  H  H23  1  0.37966816  0.79659512  0.53895930  1
  H  H24  1  0.39568884  0.66977599  0.53854058  1
  H  H25  1  0.51308967  0.73835812  0.40965928  1
  H  H26  1  0.02913320  0.76203866  0.74288674  1
  H  H27  1  0.13938379  0.83119384  0.89953243  1
  H  H28  1  0.17777542  0.69804750  0.87067520  1
  H  H29  1  0.82981861  0.79091771  0.96656687  1
  H  H30  1  0.87221400  0.66655249  0.94189162  1
  H  H31  1  0.97044409  0.73540891  0.08755125  1
  Be  Be32  1  0.44003341  0.06109784  0.88614462  1
  Be  Be33  1  0.06162382  0.56033439  0.38600784  1
  Hg  Hg34  1  0.94155953  0.05275301  0.61745137  1
  Hg  Hg35  1  0.56055573  0.55294530  0.12010004  1
  I  I36  1  0.47437002  0.23923110  0.87472799  1
  I  I37  1  0.26676527  0.01618895  0.10658725  1
  I  I38  1  0.74632460  0.99239882  0.35836217  1
  I  I39  1  0.00223415  0.26055449  0.61604826  1
  I  I40  1  0.31037071  0.98584374  0.64156010  1
  I  I41  1  0.74866293  0.98948418  0.89528323  1
  I  I42  1  0.49858511  0.76069819  0.11846761  1
  I  I43  1  0.75305885  0.48887545  0.39651618  1
  I  I44  1  0.19210644  0.48483431  0.14189855  1
  I  I45  1  0.02619337  0.73842204  0.37377797  1
  I  I46  1  0.23421385  0.51553591  0.60696114  1
  I  I47  1  0.75533151  0.49282884  0.85968176  1
