# generated using pymatgen
data_InH12IrC2(I3N)2
_symmetry_space_group_name_H-M   'P 1'
_cell_length_a   8.34335234
_cell_length_b   11.71147360
_cell_length_c   8.25558497
_cell_angle_alpha   92.20112760
_cell_angle_beta   89.99944655
_cell_angle_gamma   90.00869306
_symmetry_Int_Tables_number   1
_chemical_formula_structural   InH12IrC2(I3N)2
_chemical_formula_sum   'In2 H24 Ir2 C4 I12 N4'
_cell_volume   806.08235899
_cell_formula_units_Z   2
loop_
 _symmetry_equiv_pos_site_id
 _symmetry_equiv_pos_as_xyz
  1  'x, y, z'
loop_
 _atom_site_type_symbol
 _atom_site_label
 _atom_site_symmetry_multiplicity
 _atom_site_fract_x
 _atom_site_fract_y
 _atom_site_fract_z
 _atom_site_occupancy
  C  C0  1  0.42718764  0.24999756  0.42603064  1
  C  C1  1  0.92294799  0.25011046  0.07536062  1
  C  C2  1  0.57652890  0.75012691  0.57507354  1
  C  C3  1  0.07313321  0.74993216  0.92649347  1
  N  N4  1  0.55995874  0.25157920  0.54527979  1
  N  N5  1  0.05763101  0.24813320  0.95837565  1
  N  N6  1  0.44189439  0.74817130  0.45803621  1
  N  N7  1  0.94062106  0.75142869  0.04603878  1
  H  H8  1  0.47839903  0.24771225  0.30396524  1
  H  H9  1  0.35444807  0.17378696  0.44340208  1
  H  H10  1  0.35534690  0.32734011  0.44587736  1
  H  H11  1  0.63196326  0.17979490  0.52726930  1
  H  H12  1  0.63216014  0.32257937  0.53273107  1
  H  H13  1  0.51922822  0.25340857  0.66543663  1
  H  H14  1  0.97233460  0.25234690  0.19819267  1
  H  H15  1  0.85125352  0.17273759  0.05501540  1
  H  H16  1  0.85049882  0.32627197  0.05664780  1
  H  H17  1  0.12943460  0.17718873  0.97377793  1
  H  H18  1  0.12935400  0.32007483  0.97735647  1
  H  H19  1  0.01919893  0.24581974  0.83764882  1
  H  H20  1  0.52708930  0.75229957  0.69788522  1
  H  H21  1  0.64823464  0.67277797  0.55468492  1
  H  H22  1  0.64897473  0.82631618  0.55645724  1
  H  H23  1  0.37018918  0.82010529  0.47704243  1
  H  H24  1  0.37006109  0.67722139  0.47335773  1
  H  H25  1  0.48037467  0.74590418  0.33731978  1
  H  H26  1  0.02167354  0.74764074  0.80455617  1
  H  H27  1  0.14498980  0.82729429  0.94622268  1
  H  H28  1  0.14596246  0.67373957  0.94368834  1
  H  H29  1  0.86833730  0.82238756  0.03370550  1
  H  H30  1  0.86864347  0.67961242  0.02822041  1
  H  H31  1  0.98161395  0.75327677  0.16611520  1
  In  In32  1  0.50603523  0.99923885  0.98968768  1
  In  In33  1  0.99404415  0.49920423  0.48971045  1
  Ir  Ir34  1  0.00093928  0.00042054  0.49653918  1
  Ir  Ir35  1  0.49911413  0.50040404  0.99636758  1
  I  I36  1  0.48777141  0.26943700  0.96352878  1
  I  I37  1  0.17620113  0.00785285  0.21828463  1
  I  I38  1  0.72407443  0.00294197  0.32254568  1
  I  I39  1  0.99192314  0.23113860  0.53502850  1
  I  I40  1  0.27654175  0.99711786  0.67288504  1
  I  I41  1  0.83016119  0.99333470  0.77797455  1
  I  I42  1  0.50841387  0.73111300  0.03490076  1
  I  I43  1  0.66991932  0.49336694  0.27776833  1
  I  I44  1  0.22357099  0.49708166  0.17290016  1
  I  I45  1  0.01185188  0.76946297  0.46425887  1
  I  I46  1  0.32377080  0.50787897  0.71819265  1
  I  I47  1  0.77602386  0.50296676  0.82245865  1
