# generated using pymatgen
data_Cs2BaSrCl6
_symmetry_space_group_name_H-M   'P 1'
_cell_length_a   8.18156133
_cell_length_b   11.57463618
_cell_length_c   8.18167138
_cell_angle_alpha   90.00178391
_cell_angle_beta   90.00002557
_cell_angle_gamma   89.99995928
_symmetry_Int_Tables_number   1
_chemical_formula_structural   Cs2BaSrCl6
_chemical_formula_sum   'Cs4 Ba2 Sr2 Cl12'
_cell_volume   774.79279073
_cell_formula_units_Z   2
loop_
 _symmetry_equiv_pos_site_id
 _symmetry_equiv_pos_as_xyz
  1  'x, y, z'
loop_
 _atom_site_type_symbol
 _atom_site_label
 _atom_site_symmetry_multiplicity
 _atom_site_fract_x
 _atom_site_fract_y
 _atom_site_fract_z
 _atom_site_occupancy
  Cs  Cs0  1  0.49975691  0.24959697  0.49977095  1
  Cs  Cs1  1  0.99975354  0.25032841  0.00021626  1
  Cs  Cs2  1  0.50022982  0.74959516  0.50022136  1
  Cs  Cs3  1  0.00023962  0.75032707  0.99975522  1
  Sr  Sr4  1  0.50003537  0.99994799  0.99978036  1
  Sr  Sr5  1  0.99996377  0.49996867  0.50020016  1
  Ba  Ba6  1  0.00003608  0.99996889  0.49976549  1
  Ba  Ba7  1  0.49996006  0.49994719  0.00021488  1
  Cl  Cl8  1  0.49971181  0.24329931  0.99852656  1
  Cl  Cl9  1  0.25593144  0.00070116  0.24244932  1
  Cl  Cl10  1  0.74238916  0.00057489  0.24419127  1
  Cl  Cl11  1  0.99973439  0.25661906  0.50144735  1
  Cl  Cl12  1  0.25732759  0.99920408  0.75574511  1
  Cl  Cl13  1  0.74438430  0.99937314  0.75739255  1
  Cl  Cl14  1  0.50027517  0.75659998  0.00140559  1
  Cl  Cl15  1  0.75590001  0.49922388  0.25749507  1
  Cl  Cl16  1  0.24235477  0.49936031  0.25582063  1
  Cl  Cl17  1  0.00026012  0.74331755  0.49856365  1
  Cl  Cl18  1  0.24437567  0.50055932  0.74252838  1
  Cl  Cl19  1  0.75732578  0.50071130  0.74429867  1
