# generated using pymatgen
data_Cs2SrSnCl6
_symmetry_space_group_name_H-M   'P 1'
_cell_length_a   7.93494093
_cell_length_b   11.22042753
_cell_length_c   7.93496518
_cell_angle_alpha   89.99793014
_cell_angle_beta   89.99999963
_cell_angle_gamma   89.99997458
_symmetry_Int_Tables_number   1
_chemical_formula_structural   Cs2SrSnCl6
_chemical_formula_sum   'Cs4 Sr2 Sn2 Cl12'
_cell_volume   706.47716327
_cell_formula_units_Z   2
loop_
 _symmetry_equiv_pos_site_id
 _symmetry_equiv_pos_as_xyz
  1  'x, y, z'
loop_
 _atom_site_type_symbol
 _atom_site_label
 _atom_site_symmetry_multiplicity
 _atom_site_fract_x
 _atom_site_fract_y
 _atom_site_fract_z
 _atom_site_occupancy
  Cs  Cs0  1  0.49976439  0.24971115  0.49978765  1
  Cs  Cs1  1  0.99976002  0.25020963  0.00019762  1
  Cs  Cs2  1  0.50022963  0.74971028  0.50018130  1
  Cs  Cs3  1  0.00023552  0.75020858  0.99979473  1
  Sr  Sr4  1  0.49999878  0.99995716  0.99981544  1
  Sr  Sr5  1  0.99999622  0.49996596  0.50016263  1
  Sn  Sn6  1  0.99999797  0.99996562  0.49982601  1
  Sn  Sn7  1  0.49999571  0.49995720  0.00015232  1
  Cl  Cl8  1  0.49976590  0.25151529  0.99916659  1
  Cl  Cl9  1  0.24808425  0.00032930  0.25101271  1
  Cl  Cl10  1  0.75101405  0.00026300  0.25191038  1
  Cl  Cl11  1  0.99978131  0.24840872  0.50081350  1
  Cl  Cl12  1  0.24880449  0.99958655  0.74791312  1
  Cl  Cl13  1  0.75208405  0.99966747  0.74880504  1
  Cl  Cl14  1  0.50022820  0.74839986  0.00080316  1
  Cl  Cl15  1  0.74807695  0.49959086  0.24897234  1
  Cl  Cl16  1  0.25100713  0.49966638  0.24806321  1
  Cl  Cl17  1  0.00021332  0.75152281  0.49916794  1
  Cl  Cl18  1  0.25209000  0.50026046  0.75116385  1
  Cl  Cl19  1  0.74881747  0.50032804  0.75207926  1
