# generated using pymatgen
data_Cs2SrRuCl6
_symmetry_space_group_name_H-M   'P 1'
_cell_length_a   7.43039089
_cell_length_b   10.50691813
_cell_length_c   7.43038737
_cell_angle_alpha   90.00124643
_cell_angle_beta   90.00000613
_cell_angle_gamma   90.00000373
_symmetry_Int_Tables_number   1
_chemical_formula_structural   Cs2SrRuCl6
_chemical_formula_sum   'Cs4 Sr2 Ru2 Cl12'
_cell_volume   580.09412162
_cell_formula_units_Z   2
loop_
 _symmetry_equiv_pos_site_id
 _symmetry_equiv_pos_as_xyz
  1  'x, y, z'
loop_
 _atom_site_type_symbol
 _atom_site_label
 _atom_site_symmetry_multiplicity
 _atom_site_fract_x
 _atom_site_fract_y
 _atom_site_fract_z
 _atom_site_occupancy
  Cs  Cs0  1  0.49981717  0.24978675  0.49983046  1
  Cs  Cs1  1  0.99981435  0.25013345  0.00015365  1
  Cs  Cs2  1  0.50017688  0.74978675  0.50010794  1
  Cs  Cs3  1  0.00018122  0.75013286  0.99986908  1
  Sr  Sr4  1  0.49999824  0.99995887  0.99986403  1
  Sr  Sr5  1  0.99999660  0.49996399  0.50011439  1
  Ru  Ru6  1  0.99999741  0.99996351  0.49990375  1
  Ru  Ru7  1  0.49999693  0.49995953  0.00007449  1
  Cl  Cl8  1  0.49981647  0.26957994  0.99934571  1
  Cl  Cl9  1  0.23004228  0.00027318  0.26915894  1
  Cl  Cl10  1  0.76920815  0.00021250  0.26990320  1
  Cl  Cl11  1  0.99982939  0.23034405  0.50063534  1
  Cl  Cl12  1  0.23072513  0.99967570  0.72993271  1
  Cl  Cl13  1  0.77001300  0.99968885  0.73067484  1
  Cl  Cl14  1  0.50017716  0.73033910  0.00071123  1
  Cl  Cl15  1  0.73003375  0.49964691  0.23082643  1
  Cl  Cl16  1  0.26920300  0.49971600  0.23006910  1
  Cl  Cl17  1  0.00016514  0.76958395  0.49926159  1
  Cl  Cl18  1  0.27002025  0.50023784  0.76929596  1
  Cl  Cl19  1  0.73073284  0.50024059  0.77005597  1
