# generated using pymatgen
data_Cs2YReCl6
_symmetry_space_group_name_H-M   'P 1'
_cell_length_a   7.22281847
_cell_length_b   10.21267593
_cell_length_c   7.22283197
_cell_angle_alpha   89.99178666
_cell_angle_beta   90.00004093
_cell_angle_gamma   89.99993034
_symmetry_Int_Tables_number   1
_chemical_formula_structural   Cs2YReCl6
_chemical_formula_sum   'Cs4 Y2 Re2 Cl12'
_cell_volume   532.78716944
_cell_formula_units_Z   2
loop_
 _symmetry_equiv_pos_site_id
 _symmetry_equiv_pos_as_xyz
  1  'x, y, z'
loop_
 _atom_site_type_symbol
 _atom_site_label
 _atom_site_symmetry_multiplicity
 _atom_site_fract_x
 _atom_site_fract_y
 _atom_site_fract_z
 _atom_site_occupancy
  Cs  Cs0  1  0.49978701  0.24979838  0.49975193  1
  Cs  Cs1  1  0.99978388  0.25012799  0.00023424  1
  Cs  Cs2  1  0.50020662  0.74978902  0.50017163  1
  Cs  Cs3  1  0.00021086  0.75011863  0.99980643  1
  Y  Y4  1  0.49999894  0.99996101  0.99984788  1
  Y  Y5  1  0.99999752  0.49996595  0.50012899  1
  Re  Re6  1  0.99999786  0.99996483  0.49988775  1
  Re  Re7  1  0.49999600  0.49996133  0.00008947  1
  Cl  Cl8  1  0.49975424  0.25936917  0.99922772  1
  Cl  Cl9  1  0.24021457  0.00025209  0.25890801  1
  Cl  Cl10  1  0.75893485  0.00022506  0.25975489  1
  Cl  Cl11  1  0.99976340  0.24055961  0.50075715  1
  Cl  Cl12  1  0.24095229  0.99966189  0.74007774  1
  Cl  Cl13  1  0.75989322  0.99970428  0.74092575  1
  Cl  Cl14  1  0.50024011  0.74055340  0.00078125  1
  Cl  Cl15  1  0.74020119  0.49966628  0.24107498  1
  Cl  Cl16  1  0.25893035  0.49970195  0.24021208  1
  Cl  Cl17  1  0.00023021  0.75937189  0.49918892  1
  Cl  Cl18  1  0.25989690  0.50021834  0.75905082  1
  Cl  Cl19  1  0.74095535  0.50025323  0.75991117  1
