# generated using pymatgen
data_Cs2YInCl6
_symmetry_space_group_name_H-M   'P 1'
_cell_length_a   7.92466368
_cell_length_b   11.21149592
_cell_length_c   7.92482812
_cell_angle_alpha   89.98750128
_cell_angle_beta   90.00003746
_cell_angle_gamma   89.99983534
_symmetry_Int_Tables_number   1
_chemical_formula_structural   Cs2YInCl6
_chemical_formula_sum   'Cs4 Y2 In2 Cl12'
_cell_volume   704.09983884
_cell_formula_units_Z   2
loop_
 _symmetry_equiv_pos_site_id
 _symmetry_equiv_pos_as_xyz
  1  'x, y, z'
loop_
 _atom_site_type_symbol
 _atom_site_label
 _atom_site_symmetry_multiplicity
 _atom_site_fract_x
 _atom_site_fract_y
 _atom_site_fract_z
 _atom_site_occupancy
  Cs  Cs0  1  0.49983687  0.24983383  0.49984717  1
  Cs  Cs1  1  0.99983366  0.25009438  0.00013596  1
  Cs  Cs2  1  0.50015766  0.74983514  0.50011906  1
  Cs  Cs3  1  0.00016158  0.75009487  0.99985853  1
  Y  Y4  1  0.49999708  0.99995882  0.99986246  1
  Y  Y5  1  0.99999769  0.49996340  0.50011594  1
  In  In6  1  0.99999654  0.99996471  0.49983187  1
  In  In7  1  0.49999716  0.49995877  0.00014659  1
  Cl  Cl8  1  0.49982857  0.23400864  0.99917746  1
  Cl  Cl9  1  0.26549680  0.00025511  0.23358297  1
  Cl  Cl10  1  0.73365117  0.00028112  0.23442973  1
  Cl  Cl11  1  0.99983954  0.26591185  0.50080228  1
  Cl  Cl12  1  0.26627675  0.99959372  0.76536792  1
  Cl  Cl13  1  0.73456150  0.99970619  0.76621227  1
  Cl  Cl14  1  0.50016609  0.76590760  0.00068091  1
  Cl  Cl15  1  0.76549116  0.49966160  0.26640131  1
  Cl  Cl16  1  0.23364755  0.49964187  0.26554540  1
  Cl  Cl17  1  0.00015366  0.73401307  0.49929257  1
  Cl  Cl18  1  0.23456867  0.50021792  0.73376027  1
  Cl  Cl19  1  0.76628567  0.50032172  0.73461816  1
