# generated using pymatgen
data_Cs2YAgCl6
_symmetry_space_group_name_H-M   'P 1'
_cell_length_a   7.60372739
_cell_length_b   10.74617500
_cell_length_c   7.60374959
_cell_angle_alpha   89.99210567
_cell_angle_beta   90.00012976
_cell_angle_gamma   89.99991520
_symmetry_Int_Tables_number   1
_chemical_formula_structural   Cs2YAgCl6
_chemical_formula_sum   'Cs4 Y2 Ag2 Cl12'
_cell_volume   621.30986320
_cell_formula_units_Z   2
loop_
 _symmetry_equiv_pos_site_id
 _symmetry_equiv_pos_as_xyz
  1  'x, y, z'
loop_
 _atom_site_type_symbol
 _atom_site_label
 _atom_site_symmetry_multiplicity
 _atom_site_fract_x
 _atom_site_fract_y
 _atom_site_fract_z
 _atom_site_occupancy
  Cs  Cs0  1  0.49986151  0.24985892  0.49985440  1
  Cs  Cs1  1  0.99985801  0.25006472  0.00012923  1
  Cs  Cs2  1  0.50013317  0.74985742  0.50010684  1
  Cs  Cs3  1  0.00013700  0.75006314  0.99987110  1
  Y  Y4  1  0.49999784  0.99995970  0.99990281  1
  Y  Y5  1  0.99999682  0.49996344  0.50007570  1
  Ag  Ag6  1  0.99999755  0.99996702  0.49986352  1
  Ag  Ag7  1  0.49999692  0.49996004  0.00011641  1
  Cl  Cl8  1  0.49984838  0.24477404  0.99946219  1
  Cl  Cl9  1  0.25500096  0.00015256  0.24433664  1
  Cl  Cl10  1  0.74440647  0.00016021  0.24492657  1
  Cl  Cl11  1  0.99985791  0.25514941  0.50051792  1
  Cl  Cl12  1  0.25556946  0.99973128  0.75491088  1
  Cl  Cl13  1  0.74501547  0.99979601  0.75550182  1
  Cl  Cl14  1  0.50014611  0.75514599  0.00047460  1
  Cl  Cl15  1  0.75499388  0.49976547  0.25564594  1
  Cl  Cl16  1  0.24439939  0.49976424  0.25504726  1
  Cl  Cl17  1  0.00013658  0.74477698  0.49950035  1
  Cl  Cl18  1  0.24501866  0.50012854  0.74447383  1
  Cl  Cl19  1  0.75557328  0.50018521  0.74507081  1
