# generated using pymatgen
data_InSbH12C2(I3N)2
_symmetry_space_group_name_H-M   'P 1'
_cell_length_a   8.64356203
_cell_length_b   12.39238466
_cell_length_c   8.47483821
_cell_angle_alpha   91.51268011
_cell_angle_beta   90.00724339
_cell_angle_gamma   89.97917603
_symmetry_Int_Tables_number   1
_chemical_formula_structural   InSbH12C2(I3N)2
_chemical_formula_sum   'In2 Sb2 H24 C4 I12 N4'
_cell_volume   907.46032828
_cell_formula_units_Z   2
loop_
 _symmetry_equiv_pos_site_id
 _symmetry_equiv_pos_as_xyz
  1  'x, y, z'
loop_
 _atom_site_type_symbol
 _atom_site_label
 _atom_site_symmetry_multiplicity
 _atom_site_fract_x
 _atom_site_fract_y
 _atom_site_fract_z
 _atom_site_occupancy
  C  C0  1  0.39683044  0.25012351  0.41591938  1
  C  C1  1  0.89806528  0.25013104  0.08526295  1
  C  C2  1  0.60316708  0.74987897  0.58409410  1
  C  C3  1  0.10194161  0.74986983  0.91475174  1
  N  N4  1  0.53509057  0.25067734  0.52016457  1
  N  N5  1  0.03564060  0.24938234  0.98011953  1
  N  N6  1  0.46490708  0.74932793  0.47984905  1
  N  N7  1  0.96436838  0.75061510  0.01989796  1
  H  H8  1  0.43579277  0.24917528  0.29293794  1
  H  H9  1  0.32842022  0.17797326  0.43854736  1
  H  H10  1  0.32893787  0.32301852  0.44140880  1
  H  H11  1  0.60239697  0.18223252  0.49704367  1
  H  H12  1  0.60283900  0.31803941  0.49827307  1
  H  H13  1  0.50569480  0.25233770  0.63970321  1
  H  H14  1  0.93781742  0.25111839  0.20797278  1
  H  H15  1  0.82995130  0.17727873  0.06032592  1
  H  H16  1  0.82955526  0.32233963  0.06299016  1
  H  H17  1  0.10346979  0.18195185  0.00170267  1
  H  H18  1  0.10315622  0.31777085  0.00282362  1
  H  H19  1  0.00556679  0.24771041  0.86080121  1
  H  H20  1  0.56420561  0.75082922  0.70707536  1
  H  H21  1  0.67105879  0.67698455  0.55860529  1
  H  H22  1  0.67157830  0.82202969  0.56146480  1
  H  H23  1  0.39760057  0.81777026  0.50297157  1
  H  H24  1  0.39715755  0.68196291  0.50174206  1
  H  H25  1  0.49430119  0.74766606  0.36031114  1
  H  H26  1  0.06218732  0.74888476  0.79204271  1
  H  H27  1  0.17005547  0.82272215  0.93969132  1
  H  H28  1  0.17045302  0.67766120  0.93701971  1
  H  H29  1  0.89653623  0.81804409  0.99831796  1
  H  H30  1  0.89685487  0.68222542  0.99719240  1
  H  H31  1  0.99444389  0.75228575  0.13921537  1
  In  In32  1  0.50000224  0.00000933  0.00000867  1
  In  In33  1  0.99998943  0.50000076  0.49999000  1
  Sb  Sb34  1  0.00000169  0.00000193  0.50001044  1
  Sb  Sb35  1  0.49999653  0.50000839  0.99999380  1
  I  I36  1  0.47616667  0.25735005  0.94273384  1
  I  I37  1  0.17082427  0.01914068  0.18822359  1
  I  I38  1  0.69156151  0.00988565  0.33073922  1
  I  I39  1  0.97556242  0.24260714  0.55786594  1
  I  I40  1  0.30844541  0.99011999  0.66927842  1
  I  I41  1  0.82918134  0.98085950  0.81179407  1
  I  I42  1  0.52383826  0.74266638  0.05727591  1
  I  I43  1  0.67064562  0.48074906  0.31184210  1
  I  I44  1  0.19159051  0.49030913  0.16918629  1
  I  I45  1  0.02443677  0.75739700  0.44215269  1
  I  I46  1  0.32933382  0.51925618  0.68815144  1
  I  I47  1  0.80840497  0.50969846  0.83081083  1
