# generated using pymatgen
data_Cs2ZrHgCl6
_symmetry_space_group_name_H-M   'P 1'
_cell_length_a   7.99993463
_cell_length_b   11.31599155
_cell_length_c   7.99992079
_cell_angle_alpha   89.96665643
_cell_angle_beta   90.00007135
_cell_angle_gamma   89.99958201
_symmetry_Int_Tables_number   1
_chemical_formula_structural   Cs2ZrHgCl6
_chemical_formula_sum   'Cs4 Zr2 Hg2 Cl12'
_cell_volume   724.21024793
_cell_formula_units_Z   2
loop_
 _symmetry_equiv_pos_site_id
 _symmetry_equiv_pos_as_xyz
  1  'x, y, z'
loop_
 _atom_site_type_symbol
 _atom_site_label
 _atom_site_symmetry_multiplicity
 _atom_site_fract_x
 _atom_site_fract_y
 _atom_site_fract_z
 _atom_site_occupancy
  Cs  Cs0  1  0.49983473  0.24983383  0.49981560  1
  Cs  Cs1  1  0.99983236  0.25009450  0.00016789  1
  Cs  Cs2  1  0.50015902  0.74983530  0.50011217  1
  Cs  Cs3  1  0.00016290  0.75009476  0.99986668  1
  Zr  Zr4  1  0.49999849  0.99995780  0.99988540  1
  Zr  Zr5  1  0.99999620  0.49996314  0.50009305  1
  Hg  Hg6  1  0.99999802  0.99996524  0.49981944  1
  Hg  Hg7  1  0.49999590  0.49995596  0.00015918  1
  Cl  Cl8  1  0.49984108  0.21858612  0.99912306  1
  Cl  Cl9  1  0.28103954  0.00020997  0.21817351  1
  Cl  Cl10  1  0.71822767  0.00028751  0.21890321  1
  Cl  Cl11  1  0.99985361  0.28133525  0.50085588  1
  Cl  Cl12  1  0.28171110  0.99958536  0.78092735  1
  Cl  Cl13  1  0.71901696  0.99974950  0.78165894  1
  Cl  Cl14  1  0.50015374  0.78132987  0.00066811  1
  Cl  Cl15  1  0.78103125  0.49970605  0.28181063  1
  Cl  Cl16  1  0.21821976  0.49963608  0.28107036  1
  Cl  Cl17  1  0.00013743  0.71859132  0.49930683  1
  Cl  Cl18  1  0.21902013  0.50017674  0.71831471  1
  Cl  Cl19  1  0.78171548  0.50033003  0.71905681  1
