# generated using pymatgen
data_Cs2ZrPdCl6
_symmetry_space_group_name_H-M   'P 1'
_cell_length_a   7.42323828
_cell_length_b   10.48781159
_cell_length_c   7.42325402
_cell_angle_alpha   89.97988265
_cell_angle_beta   90.00003604
_cell_angle_gamma   89.99980752
_symmetry_Int_Tables_number   1
_chemical_formula_structural   Cs2ZrPdCl6
_chemical_formula_sum   'Cs4 Zr2 Pd2 Cl12'
_cell_volume   577.92645300
_cell_formula_units_Z   2
loop_
 _symmetry_equiv_pos_site_id
 _symmetry_equiv_pos_as_xyz
  1  'x, y, z'
loop_
 _atom_site_type_symbol
 _atom_site_label
 _atom_site_symmetry_multiplicity
 _atom_site_fract_x
 _atom_site_fract_y
 _atom_site_fract_z
 _atom_site_occupancy
  Cs  Cs0  1  0.49985057  0.24983130  0.49982055  1
  Cs  Cs1  1  0.99984768  0.25009076  0.00016359  1
  Cs  Cs2  1  0.50014386  0.74983131  0.50012436  1
  Cs  Cs3  1  0.00014810  0.75008967  0.99985384  1
  Zr  Zr4  1  0.49999878  0.99996012  0.99991779  1
  Zr  Zr5  1  0.99999684  0.49996240  0.50006058  1
  Pd  Pd6  1  0.99999284  0.99996926  0.49980892  1
  Pd  Pd7  1  0.49999150  0.49996178  0.00017016  1
  Cl  Cl8  1  0.49984513  0.23872934  0.99937891  1
  Cl  Cl9  1  0.26110114  0.00014347  0.23836661  1
  Cl  Cl10  1  0.73840579  0.00016523  0.23885714  1
  Cl  Cl11  1  0.99985403  0.26119629  0.50060006  1
  Cl  Cl12  1  0.26155304  0.99971252  0.76102321  1
  Cl  Cl13  1  0.73893789  0.99981736  0.76151644  1
  Cl  Cl14  1  0.50015122  0.76119060  0.00052152  1
  Cl  Cl15  1  0.76108780  0.49977428  0.26161335  1
  Cl  Cl16  1  0.23840376  0.49975832  0.26111109  1
  Cl  Cl17  1  0.00013868  0.73872851  0.49945131  1
  Cl  Cl18  1  0.23894415  0.50010756  0.73846307  1
  Cl  Cl19  1  0.76155258  0.50020427  0.73896631  1
