# generated using pymatgen
data_Cs2BaRuCl6
_symmetry_space_group_name_H-M   'P 1'
_cell_length_a   7.59566370
_cell_length_b   10.74065269
_cell_length_c   7.59567317
_cell_angle_alpha   89.99551554
_cell_angle_beta   89.99998213
_cell_angle_gamma   89.99993954
_symmetry_Int_Tables_number   1
_chemical_formula_structural   Cs2BaRuCl6
_chemical_formula_sum   'Cs4 Ba2 Ru2 Cl12'
_cell_volume   619.67313636
_cell_formula_units_Z   2
loop_
 _symmetry_equiv_pos_site_id
 _symmetry_equiv_pos_as_xyz
  1  'x, y, z'
loop_
 _atom_site_type_symbol
 _atom_site_label
 _atom_site_symmetry_multiplicity
 _atom_site_fract_x
 _atom_site_fract_y
 _atom_site_fract_z
 _atom_site_occupancy
  Cs  Cs0  1  0.49978699  0.24974569  0.49984092  1
  Cs  Cs1  1  0.99978275  0.25017594  0.00014411  1
  Cs  Cs2  1  0.50020785  0.74974493  0.50017815  1
  Cs  Cs3  1  0.00021218  0.75017527  0.99979845  1
  Ru  Ru4  1  0.49999753  0.99995895  0.99988901  1
  Ru  Ru5  1  0.99999700  0.49996392  0.50008937  1
  Ba  Ba6  1  0.99999791  0.99996603  0.49982914  1
  Ba  Ba7  1  0.49999587  0.49995841  0.00014912  1
  Cl  Cl8  1  0.49979854  0.22407368  0.99919892  1
  Cl  Cl9  1  0.27553714  0.00027868  0.22359222  1
  Cl  Cl10  1  0.72363173  0.00026019  0.22441832  1
  Cl  Cl11  1  0.99981166  0.27584996  0.50078118  1
  Cl  Cl12  1  0.27626428  0.99961092  0.77540365  1
  Cl  Cl13  1  0.72455472  0.99969094  0.77622684  1
  Cl  Cl14  1  0.50019619  0.77584336  0.00068928  1
  Cl  Cl15  1  0.77553024  0.49964027  0.27639332  1
  Cl  Cl16  1  0.22362419  0.49966746  0.27555434  1
  Cl  Cl17  1  0.00018244  0.72407948  0.49928362  1
  Cl  Cl18  1  0.22456066  0.50023586  0.72374272  1
  Cl  Cl19  1  0.77627548  0.50030439  0.72458614  1
