# generated using pymatgen
data_Cs2InRhCl6
_symmetry_space_group_name_H-M   'P 1'
_cell_length_a   7.43388744
_cell_length_b   10.50481649
_cell_length_c   7.43385951
_cell_angle_alpha   89.99247262
_cell_angle_beta   90.00001712
_cell_angle_gamma   89.99985293
_symmetry_Int_Tables_number   1
_chemical_formula_structural   Cs2InRhCl6
_chemical_formula_sum   'Cs4 In2 Rh2 Cl12'
_cell_volume   580.52215189
_cell_formula_units_Z   2
loop_
 _symmetry_equiv_pos_site_id
 _symmetry_equiv_pos_as_xyz
  1  'x, y, z'
loop_
 _atom_site_type_symbol
 _atom_site_label
 _atom_site_symmetry_multiplicity
 _atom_site_fract_x
 _atom_site_fract_y
 _atom_site_fract_z
 _atom_site_occupancy
  Cs  Cs0  1  0.49987210  0.24987233  0.49989666  1
  Cs  Cs1  1  0.99986807  0.25004920  0.00008810  1
  Cs  Cs2  1  0.50012344  0.74987179  0.50012498  1
  Cs  Cs3  1  0.00012692  0.75004794  0.99985484  1
  Rh  Rh4  1  0.49999674  0.99996078  0.99989791  1
  Rh  Rh5  1  0.99999765  0.49996245  0.50007993  1
  In  In6  1  0.99999743  0.99996632  0.49982970  1
  In  In7  1  0.49999618  0.49996348  0.00014739  1
  Cl  Cl8  1  0.49983453  0.22840672  0.99938194  1
  Cl  Cl9  1  0.27165513  0.00014507  0.22773089  1
  Cl  Cl10  1  0.72778154  0.00017785  0.22828776  1
  Cl  Cl11  1  0.99984177  0.27151782  0.50059813  1
  Cl  Cl12  1  0.27215117  0.99971802  0.77154673  1
  Cl  Cl13  1  0.72839636  0.99979794  0.77210091  1
  Cl  Cl14  1  0.50016049  0.77151614  0.00047045  1
  Cl  Cl15  1  0.77165326  0.49977430  0.27225161  1
  Cl  Cl16  1  0.22777904  0.49974314  0.27168925  1
  Cl  Cl17  1  0.00015179  0.72840896  0.49950409  1
  Cl  Cl18  1  0.22840088  0.50012353  0.72787074  1
  Cl  Cl19  1  0.77216089  0.50020056  0.72843681  1
