# generated using pymatgen
data_Cs2HfPdCl6
_symmetry_space_group_name_H-M   'P 1'
_cell_length_a   7.40965854
_cell_length_b   10.43467082
_cell_length_c   7.40973654
_cell_angle_alpha   90.01526861
_cell_angle_beta   89.99977593
_cell_angle_gamma   90.00009521
_symmetry_Int_Tables_number   1
_chemical_formula_structural   Cs2HfPdCl6
_chemical_formula_sum   'Cs4 Hf2 Pd2 Cl12'
_cell_volume   572.90115642
_cell_formula_units_Z   2
loop_
 _symmetry_equiv_pos_site_id
 _symmetry_equiv_pos_as_xyz
  1  'x, y, z'
loop_
 _atom_site_type_symbol
 _atom_site_label
 _atom_site_symmetry_multiplicity
 _atom_site_fract_x
 _atom_site_fract_y
 _atom_site_fract_z
 _atom_site_occupancy
  Cs  Cs0  1  0.49988596  0.24988546  0.49989535  1
  Cs  Cs1  1  0.99988409  0.25003813  0.00008786  1
  Cs  Cs2  1  0.50010875  0.74988490  0.50011525  1
  Cs  Cs3  1  0.00011102  0.75003797  0.99986326  1
  Pd  Pd4  1  0.50000279  0.99996038  0.99980995  1
  Pd  Pd5  1  1.00000001  0.49996818  0.50016868  1
  Hf  Hf6  1  0.99999690  0.99996090  0.49994158  1
  Hf  Hf7  1  0.49999663  0.49995958  0.00003679  1
  Cl  Cl8  1  0.49988378  0.26331071  0.99959038  1
  Cl  Cl9  1  0.23571094  0.00015824  0.26384677  1
  Cl  Cl10  1  0.76388525  0.00007348  0.26424641  1
  Cl  Cl11  1  0.99989347  0.23660991  0.50038881  1
  Cl  Cl12  1  0.23609153  0.99982892  0.73565462  1
  Cl  Cl13  1  0.76429952  0.99978707  0.73605367  1
  Cl  Cl14  1  0.50010899  0.73660821  0.00047998  1
  Cl  Cl15  1  0.73570519  0.49976138  0.23613484  1
  Cl  Cl16  1  0.26388152  0.49985283  0.23573056  1
  Cl  Cl17  1  0.00009970  0.76331203  0.49949373  1
  Cl  Cl18  1  0.26430261  0.50013769  0.76392313  1
  Cl  Cl19  1  0.73609672  0.50008836  0.76432720  1
