# generated using pymatgen
data_Cs2AgBiCl6
_symmetry_space_group_name_H-M   'P 1'
_cell_length_a   7.66705044
_cell_length_b   10.82895949
_cell_length_c   7.66705014
_cell_angle_alpha   90.00737087
_cell_angle_beta   89.99994726
_cell_angle_gamma   90.00013610
_symmetry_Int_Tables_number   1
_chemical_formula_structural   Cs2AgBiCl6
_chemical_formula_sum   'Cs4 Ag2 Bi2 Cl12'
_cell_volume   636.56586902
_cell_formula_units_Z   2
loop_
 _symmetry_equiv_pos_site_id
 _symmetry_equiv_pos_as_xyz
  1  'x, y, z'
loop_
 _atom_site_type_symbol
 _atom_site_label
 _atom_site_symmetry_multiplicity
 _atom_site_fract_x
 _atom_site_fract_y
 _atom_site_fract_z
 _atom_site_occupancy
  Cs  Cs0  1  0.49985537  0.24986853  0.49987565  1
  Cs  Cs1  1  0.99985087  0.25005727  0.00010785  1
  Cs  Cs2  1  0.50013912  0.74986842  0.50012487  1
  Cs  Cs3  1  0.00014367  0.75005675  0.99985127  1
  Ag  Ag4  1  0.49999832  0.99995660  0.99986164  1
  Ag  Ag5  1  0.99999679  0.49996563  0.50011943  1
  Bi  Bi6  1  0.99999761  0.99996432  0.49989566  1
  Bi  Bi7  1  0.49999663  0.49995873  0.00008353  1
  Cl  Cl8  1  0.49984497  0.24963286  0.99943862  1
  Cl  Cl9  1  0.24990040  0.00022178  0.24946727  1
  Cl  Cl10  1  0.74950956  0.00017251  0.25005349  1
  Cl  Cl11  1  0.99985594  0.25028934  0.50053990  1
  Cl  Cl12  1  0.25042961  0.99971828  0.74980473  1
  Cl  Cl13  1  0.75015013  0.99973139  0.75038987  1
  Cl  Cl14  1  0.50014957  0.75028432  0.00056639  1
  Cl  Cl15  1  0.74989412  0.49969763  0.25051626  1
  Cl  Cl16  1  0.24950362  0.49975176  0.24992153  1
  Cl  Cl17  1  0.00013871  0.74963780  0.49940556  1
  Cl  Cl18  1  0.25015444  0.50019199  0.74958469  1
  Cl  Cl19  1  0.75043591  0.50019842  0.75018060  1
