# generated using pymatgen
data_SnH12PbC2(I3N)2
_symmetry_space_group_name_H-M   'P 1'
_cell_length_a   8.62269398
_cell_length_b   12.47316742
_cell_length_c   8.49025488
_cell_angle_alpha   89.88044871
_cell_angle_beta   90.00878058
_cell_angle_gamma   89.99714940
_symmetry_Int_Tables_number   1
_chemical_formula_structural   SnH12PbC2(I3N)2
_chemical_formula_sum   'Sn2 H24 Pb2 C4 I12 N4'
_cell_volume   913.14448845
_cell_formula_units_Z   2
loop_
 _symmetry_equiv_pos_site_id
 _symmetry_equiv_pos_as_xyz
  1  'x, y, z'
loop_
 _atom_site_type_symbol
 _atom_site_label
 _atom_site_symmetry_multiplicity
 _atom_site_fract_x
 _atom_site_fract_y
 _atom_site_fract_z
 _atom_site_occupancy
  C  C0  1  0.39560746  0.25017827  0.41534902  1
  C  C1  1  0.89694846  0.25008005  0.08594430  1
  C  C2  1  0.60438982  0.74982554  0.58466667  1
  C  C3  1  0.10305962  0.74992000  0.91407043  1
  N  N4  1  0.53362689  0.25002800  0.52010941  1
  N  N5  1  0.03425798  0.25005552  0.98027688  1
  N  N6  1  0.46636897  0.74997378  0.47990852  1
  N  N7  1  0.96575155  0.74994106  0.01973973  1
  H  H8  1  0.43514510  0.25020097  0.29273775  1
  H  H9  1  0.32715569  0.17806208  0.43891783  1
  H  H10  1  0.32716046  0.32225438  0.43886717  1
  H  H11  1  0.60129707  0.18251346  0.49784343  1
  H  H12  1  0.60152967  0.31751348  0.49782539  1
  H  H13  1  0.50381770  0.24986390  0.63928693  1
  H  H14  1  0.93740524  0.25011447  0.20828727  1
  H  H15  1  0.82822817  0.17804643  0.06307212  1
  H  H16  1  0.82847488  0.32225705  0.06281883  1
  H  H17  1  0.10215869  0.18251246  0.00217511  1
  H  H18  1  0.10215924  0.31750979  0.00201404  1
  H  H19  1  0.00366057  0.25018978  0.86126231  1
  H  H20  1  0.56485307  0.74980304  0.70727892  1
  H  H21  1  0.67283590  0.67774776  0.56114946  1
  H  H22  1  0.67284180  0.82194009  0.56109747  1
  H  H23  1  0.39869926  0.81748994  0.50217536  1
  H  H24  1  0.39846731  0.68248964  0.50219279  1
  H  H25  1  0.49617747  0.75013984  0.36073025  1
  H  H26  1  0.06260156  0.74988776  0.79172807  1
  H  H27  1  0.17178018  0.82195271  0.93694602  1
  H  H28  1  0.17153312  0.67774225  0.93719165  1
  H  H29  1  0.89784811  0.81748360  0.99784394  1
  H  H30  1  0.89785207  0.68248632  0.99800190  1
  H  H31  1  0.99635027  0.74980657  0.13875418  1
  Sn  Sn32  1  0.49999866  0.00001158  0.00000862  1
  Sn  Sn33  1  0.99998276  0.50000218  0.49998288  1
  Pb  Pb34  1  0.00000033  0.00000265  0.50001592  1
  Pb  Pb35  1  0.49999626  0.50001565  0.99998009  1
  I  I36  1  0.46951439  0.24781776  0.93754904  1
  I  I37  1  0.17852828  0.01565876  0.17059806  1
  I  I38  1  0.67325744  0.01649801  0.32459236  1
  I  I39  1  0.96895206  0.25218858  0.56304484  1
  I  I40  1  0.32675879  0.98351022  0.67541987  1
  I  I41  1  0.82147838  0.98433635  0.82942249  1
  I  I42  1  0.53048964  0.75220587  0.06246491  1
  I  I43  1  0.67847937  0.48412776  0.32935450  1
  I  I44  1  0.17335865  0.48375455  0.17544393  1
  I  I45  1  0.03104554  0.74781241  0.43697193  1
  I  I46  1  0.32150027  0.51587571  0.67063021  1
  I  I47  1  0.82663955  0.51625026  0.82455380  1
