# generated using pymatgen
data_Cs2HfCdCl6
_symmetry_space_group_name_H-M   'P 1'
_cell_length_a   7.96807875
_cell_length_b   11.26489977
_cell_length_c   7.96833973
_cell_angle_alpha   90.03136729
_cell_angle_beta   89.99999592
_cell_angle_gamma   90.00028425
_symmetry_Int_Tables_number   1
_chemical_formula_structural   Cs2HfCdCl6
_chemical_formula_sum   'Cs4 Hf2 Cd2 Cl12'
_cell_volume   715.23494653
_cell_formula_units_Z   2
loop_
 _symmetry_equiv_pos_site_id
 _symmetry_equiv_pos_as_xyz
  1  'x, y, z'
loop_
 _atom_site_type_symbol
 _atom_site_label
 _atom_site_symmetry_multiplicity
 _atom_site_fract_x
 _atom_site_fract_y
 _atom_site_fract_z
 _atom_site_occupancy
  Cs  Cs0  1  0.49985204  0.24987025  0.49990841  1
  Cs  Cs1  1  0.99984619  0.25006520  0.00007130  1
  Cs  Cs2  1  0.50014745  0.74986740  0.50014684  1
  Cs  Cs3  1  0.00014643  0.75006755  0.99982857  1
  Cd  Cd4  1  0.49999970  0.99995154  0.99971799  1
  Cd  Cd5  1  0.99999646  0.49996383  0.50025112  1
  Hf  Hf6  1  0.99999861  0.99996368  0.49983029  1
  Hf  Hf7  1  0.49999534  0.49995337  0.00014786  1
  Cl  Cl8  1  0.49982589  0.28269270  0.99945913  1
  Cl  Cl9  1  0.21684975  0.00033261  0.28236436  1
  Cl  Cl10  1  0.78241567  0.00013939  0.28309533  1
  Cl  Cl11  1  0.99983743  0.21722453  0.50052768  1
  Cl  Cl12  1  0.21747295  0.99974531  0.71668016  1
  Cl  Cl13  1  0.78325120  0.99964526  0.71740634  1
  Cl  Cl14  1  0.50017594  0.71721416  0.00085573  1
  Cl  Cl15  1  0.71683499  0.49958921  0.21762608  1
  Cl  Cl16  1  0.28240390  0.49978593  0.21687374  1
  Cl  Cl17  1  0.00016172  0.78270313  0.49912477  1
  Cl  Cl18  1  0.28325424  0.50028175  0.78256532  1
  Cl  Cl19  1  0.71747949  0.50016753  0.78330780  1
