# generated using pymatgen
data_Cs2BaCdCl6
_symmetry_space_group_name_H-M   'P 1'
_cell_length_a   7.88793862
_cell_length_b   11.14323720
_cell_length_c   7.88797487
_cell_angle_alpha   89.99813245
_cell_angle_beta   89.99999186
_cell_angle_gamma   89.99997197
_symmetry_Int_Tables_number   1
_chemical_formula_structural   Cs2BaCdCl6
_chemical_formula_sum   'Cs4 Ba2 Cd2 Cl12'
_cell_volume   693.33067647
_cell_formula_units_Z   2
loop_
 _symmetry_equiv_pos_site_id
 _symmetry_equiv_pos_as_xyz
  1  'x, y, z'
loop_
 _atom_site_type_symbol
 _atom_site_label
 _atom_site_symmetry_multiplicity
 _atom_site_fract_x
 _atom_site_fract_y
 _atom_site_fract_z
 _atom_site_occupancy
  Cs  Cs0  1  0.49977260  0.24972514  0.49981474  1
  Cs  Cs1  1  0.99976838  0.25019638  0.00017002  1
  Cs  Cs2  1  0.50022173  0.74972445  0.50018181  1
  Cs  Cs3  1  0.00022683  0.75019569  0.99979414  1
  Cd  Cd4  1  0.49999872  0.99995832  0.99982846  1
  Cd  Cd5  1  0.99999653  0.49996675  0.50015026  1
  Ba  Ba6  1  0.99999813  0.99996591  0.49981610  1
  Ba  Ba7  1  0.49999570  0.49995716  0.00016213  1
  Cl  Cl8  1  0.49977601  0.23464667  0.99914198  1
  Cl  Cl9  1  0.26489027  0.00032908  0.23422884  1
  Cl  Cl10  1  0.73423784  0.00027912  0.23509690  1
  Cl  Cl11  1  0.99979094  0.26527685  0.50083726  1
  Cl  Cl12  1  0.26561677  0.99957156  0.76474768  1
  Cl  Cl13  1  0.73524196  0.99966253  0.76561029  1
  Cl  Cl14  1  0.50021826  0.76527001  0.00078316  1
  Cl  Cl15  1  0.76488274  0.49958967  0.26575596  1
  Cl  Cl16  1  0.23423132  0.49964896  0.26487703  1
  Cl  Cl17  1  0.00020331  0.73465336  0.49918747  1
  Cl  Cl18  1  0.23524848  0.50026456  0.73436011  1
  Cl  Cl19  1  0.76562885  0.50034216  0.73524447  1
