# generated using pymatgen
data_Cs2CdSnCl6
_symmetry_space_group_name_H-M   'P 1'
_cell_length_a   7.65674988
_cell_length_b   10.82482365
_cell_length_c   7.65676513
_cell_angle_alpha   89.99851488
_cell_angle_beta   90.00000936
_cell_angle_gamma   89.99991200
_symmetry_Int_Tables_number   1
_chemical_formula_structural   Cs2CdSnCl6
_chemical_formula_sum   'Cs4 Cd2 Sn2 Cl12'
_cell_volume   634.61541238
_cell_formula_units_Z   2
loop_
 _symmetry_equiv_pos_site_id
 _symmetry_equiv_pos_as_xyz
  1  'x, y, z'
loop_
 _atom_site_type_symbol
 _atom_site_label
 _atom_site_symmetry_multiplicity
 _atom_site_fract_x
 _atom_site_fract_y
 _atom_site_fract_z
 _atom_site_occupancy
  Cs  Cs0  1  0.49978900  0.24974845  0.49982208  1
  Cs  Cs1  1  0.99978522  0.25017355  0.00016281  1
  Cs  Cs2  1  0.50020540  0.74974787  0.50016088  1
  Cs  Cs3  1  0.00021009  0.75017286  0.99981577  1
  Cd  Cd4  1  0.49999873  0.99995765  0.99982891  1
  Cd  Cd5  1  0.99999649  0.49996577  0.50014972  1
  Sn  Sn6  1  0.99999800  0.99996543  0.49983136  1
  Sn  Sn7  1  0.49999595  0.49995765  0.00014709  1
  Cl  Cl8  1  0.49978905  0.24368831  0.99922705  1
  Cl  Cl9  1  0.25589233  0.00029855  0.24324831  1
  Cl  Cl10  1  0.74326762  0.00024647  0.24408463  1
  Cl  Cl11  1  0.99980287  0.25623536  0.50075319  1
  Cl  Cl12  1  0.25660179  0.99961122  0.75575407  1
  Cl  Cl13  1  0.74422495  0.99968707  0.75658539  1
  Cl  Cl14  1  0.50020540  0.75622879  0.00072478  1
  Cl  Cl15  1  0.75588514  0.49962076  0.25673509  1
  Cl  Cl16  1  0.24326136  0.49968114  0.25588896  1
  Cl  Cl17  1  0.00019172  0.74369463  0.49924702  1
  Cl  Cl18  1  0.24423110  0.50023956  0.74338556  1
  Cl  Cl19  1  0.75661316  0.50030325  0.74423614  1
