# generated using pymatgen
data_BaSnH12C2(I3N)2
_symmetry_space_group_name_H-M   'P 1'
_cell_length_a   8.88616781
_cell_length_b   12.77914024
_cell_length_c   8.59835442
_cell_angle_alpha   89.34221790
_cell_angle_beta   90.00277432
_cell_angle_gamma   90.00049346
_symmetry_Int_Tables_number   1
_chemical_formula_structural   BaSnH12C2(I3N)2
_chemical_formula_sum   'Ba2 Sn2 H24 C4 I12 N4'
_cell_volume   976.34401342
_cell_formula_units_Z   2
loop_
 _symmetry_equiv_pos_site_id
 _symmetry_equiv_pos_as_xyz
  1  'x, y, z'
loop_
 _atom_site_type_symbol
 _atom_site_label
 _atom_site_symmetry_multiplicity
 _atom_site_fract_x
 _atom_site_fract_y
 _atom_site_fract_z
 _atom_site_occupancy
  C  C0  1  0.39646316  0.25026256  0.42023418  1
  C  C1  1  0.89692405  0.24973146  0.08013487  1
  C  C2  1  0.60352533  0.74974370  0.57975009  1
  C  C3  1  0.10307288  0.75026499  0.91987415  1
  N  N4  1  0.53451240  0.24990200  0.51785849  1
  N  N5  1  0.03478081  0.25010374  0.98223382  1
  N  N6  1  0.46548172  0.75009574  0.48211699  1
  N  N7  1  0.96522889  0.74989477  0.01779471  1
  H  H8  1  0.42987579  0.25014394  0.29751357  1
  H  H9  1  0.33163107  0.17946926  0.44687635  1
  H  H10  1  0.33070488  0.32043381  0.44574048  1
  H  H11  1  0.59910321  0.18398305  0.49311546  1
  H  H12  1  0.59963643  0.31608528  0.49327847  1
  H  H13  1  0.50962785  0.24893799  0.63671371  1
  H  H14  1  0.93059897  0.24986125  0.20277960  1
  H  H15  1  0.83111956  0.17956260  0.05477789  1
  H  H16  1  0.83204452  0.32053302  0.05363542  1
  H  H17  1  0.09994529  0.18391019  0.00670626  1
  H  H18  1  0.09941725  0.31601404  0.00685786  1
  H  H19  1  0.00968812  0.25105751  0.86342338  1
  H  H20  1  0.57010529  0.74986254  0.70246911  1
  H  H21  1  0.66929074  0.67957383  0.55425111  1
  H  H22  1  0.66835427  0.82053923  0.55310657  1
  H  H23  1  0.40088508  0.81601276  0.50684895  1
  H  H24  1  0.40036164  0.68391291  0.50670103  1
  H  H25  1  0.49037298  0.75105692  0.36326347  1
  H  H26  1  0.06938078  0.75014490  0.79723389  1
  H  H27  1  0.16888757  0.82043057  0.94522801  1
  H  H28  1  0.16795070  0.67945974  0.94635411  1
  H  H29  1  0.90005974  0.81608477  0.99332551  1
  H  H30  1  0.90059210  0.68398120  0.99318398  1
  H  H31  1  0.99033581  0.74894476  0.13660146  1
  Sn  Sn32  1  0.50000749  0.00000793  0.99996461  1
  Sn  Sn33  1  0.00002582  0.50002014  0.50007527  1
  Ba  Ba34  1  0.99999334  0.00002374  0.49997614  1
  Ba  Ba35  1  0.49999970  0.49999579  0.00008879  1
  I  I36  1  0.46506116  0.24161109  0.92808115  1
  I  I37  1  0.18310813  0.01920556  0.15791082  1
  I  I38  1  0.66249953  0.02382753  0.32287810  1
  I  I39  1  0.96495971  0.25840786  0.57203068  1
  I  I40  1  0.33748332  0.97617658  0.67709144  1
  I  I41  1  0.81692381  0.98079250  0.84206399  1
  I  I42  1  0.53494034  0.75839796  0.07190466  1
  I  I43  1  0.68309306  0.48072955  0.34215386  1
  I  I44  1  0.16251761  0.47623147  0.17715795  1
  I  I45  1  0.03505046  0.74162231  0.42801088  1
  I  I46  1  0.31694961  0.51927888  0.65798268  1
  I  I47  1  0.83745178  0.52375433  0.82294264  1
