# generated using pymatgen
data_Cs2BaSnCl6
_symmetry_space_group_name_H-M   'P 1'
_cell_length_a   8.13391270
_cell_length_b   11.50685216
_cell_length_c   8.13410910
_cell_angle_alpha   90.00014582
_cell_angle_beta   90.00000502
_cell_angle_gamma   90.00028758
_symmetry_Int_Tables_number   1
_chemical_formula_structural   Cs2BaSnCl6
_chemical_formula_sum   'Cs4 Ba2 Sn2 Cl12'
_cell_volume   761.31788607
_cell_formula_units_Z   2
loop_
 _symmetry_equiv_pos_site_id
 _symmetry_equiv_pos_as_xyz
  1  'x, y, z'
loop_
 _atom_site_type_symbol
 _atom_site_label
 _atom_site_symmetry_multiplicity
 _atom_site_fract_x
 _atom_site_fract_y
 _atom_site_fract_z
 _atom_site_occupancy
  Cs  Cs0  1  0.49973174  0.24960436  0.49976434  1
  Cs  Cs1  1  0.99972938  0.25032162  0.00022299  1
  Cs  Cs2  1  0.50027651  0.74960266  0.50024251  1
  Cs  Cs3  1  0.00028428  0.75032087  0.99973584  1
  Sn  Sn4  1  0.50001196  0.99995137  0.99978520  1
  Sn  Sn5  1  0.99996199  0.49996143  0.50019507  1
  Ba  Ba6  1  0.00000947  0.99996039  0.49975787  1
  Ba  Ba7  1  0.49995535  0.49995178  0.00022217  1
  Cl  Cl8  1  0.49973051  0.24186103  0.99891553  1
  Cl  Cl9  1  0.25760190  0.00047028  0.24123853  1
  Cl  Cl10  1  0.74119121  0.00036826  0.24246119  1
  Cl  Cl11  1  0.99974735  0.25805403  0.50105689  1
  Cl  Cl12  1  0.25852556  0.99943798  0.75738468  1
  Cl  Cl13  1  0.74269186  0.99957514  0.75858436  1
  Cl  Cl14  1  0.50029120  0.75804611  0.00103398  1
  Cl  Cl15  1  0.75757293  0.49945631  0.25871995  1
  Cl  Cl16  1  0.24115997  0.49957497  0.25753808  1
  Cl  Cl17  1  0.00026890  0.74186823  0.49892933  1
  Cl  Cl18  1  0.24268002  0.50035688  0.74135489  1
  Cl  Cl19  1  0.75852330  0.50048062  0.74264542  1
