# generated using pymatgen
data_Cs2TlSbCl6
_symmetry_space_group_name_H-M   'P 1'
_cell_length_a   7.94518478
_cell_length_b   11.23928862
_cell_length_c   7.94522488
_cell_angle_alpha   89.99302916
_cell_angle_beta   90.00000825
_cell_angle_gamma   89.99976081
_symmetry_Int_Tables_number   1
_chemical_formula_structural   Cs2TlSbCl6
_chemical_formula_sum   'Cs4 Tl2 Sb2 Cl12'
_cell_volume   709.49447319
_cell_formula_units_Z   2
loop_
 _symmetry_equiv_pos_site_id
 _symmetry_equiv_pos_as_xyz
  1  'x, y, z'
loop_
 _atom_site_type_symbol
 _atom_site_label
 _atom_site_symmetry_multiplicity
 _atom_site_fract_x
 _atom_site_fract_y
 _atom_site_fract_z
 _atom_site_occupancy
  Cs  Cs0  1  0.49980257  0.24977220  0.49981966  1
  Cs  Cs1  1  0.99979859  0.25015488  0.00016504  1
  Cs  Cs2  1  0.50019200  0.74977391  0.50017205  1
  Cs  Cs3  1  0.00019665  0.75015658  0.99980722  1
  Sb  Sb4  1  0.49999767  0.99995638  0.99986641  1
  Sb  Sb5  1  0.99999716  0.49996557  0.50011193  1
  Tl  Tl6  1  0.99999749  0.99996780  0.49981962  1
  Tl  Tl7  1  0.49999653  0.49995577  0.00015875  1
  Cl  Cl8  1  0.49981953  0.23476230  0.99925125  1
  Cl  Cl9  1  0.26491137  0.00025200  0.23433984  1
  Cl  Cl10  1  0.73438010  0.00024092  0.23504349  1
  Cl  Cl11  1  0.99983895  0.26515840  0.50072400  1
  Cl  Cl12  1  0.26549602  0.99962508  0.76475690  1
  Cl  Cl13  1  0.73519990  0.99971813  0.76545771  1
  Cl  Cl14  1  0.50017610  0.76514765  0.00064892  1
  Cl  Cl15  1  0.76490520  0.49966309  0.26564409  1
  Cl  Cl16  1  0.23437626  0.49968565  0.26493157  1
  Cl  Cl17  1  0.00015391  0.73477337  0.49932559  1
  Cl  Cl18  1  0.23520499  0.50020795  0.73451489  1
  Cl  Cl19  1  0.76550439  0.50028670  0.73522989  1
