# generated using pymatgen
data_Cs2BaPbCl6
_symmetry_space_group_name_H-M   'P 1'
_cell_length_a   8.19135166
_cell_length_b   11.58886640
_cell_length_c   8.19132112
_cell_angle_alpha   90.00073421
_cell_angle_beta   90.00001250
_cell_angle_gamma   89.99990982
_symmetry_Int_Tables_number   1
_chemical_formula_structural   Cs2BaPbCl6
_chemical_formula_sum   'Cs4 Ba2 Pb2 Cl12'
_cell_volume   777.58966295
_cell_formula_units_Z   2
loop_
 _symmetry_equiv_pos_site_id
 _symmetry_equiv_pos_as_xyz
  1  'x, y, z'
loop_
 _atom_site_type_symbol
 _atom_site_label
 _atom_site_symmetry_multiplicity
 _atom_site_fract_x
 _atom_site_fract_y
 _atom_site_fract_z
 _atom_site_occupancy
  Cs  Cs0  1  0.49970353  0.24954492  0.49972066  1
  Cs  Cs1  1  0.99970566  0.25037906  0.00026795  1
  Cs  Cs2  1  0.50028997  0.74954356  0.50023557  1
  Cs  Cs3  1  0.00030457  0.75037712  0.99974306  1
  Ba  Ba4  1  0.50001316  0.99995112  0.99973925  1
  Ba  Ba5  1  0.99995410  0.49996163  0.50024162  1
  Pb  Pb6  1  0.00000947  0.99996239  0.49976561  1
  Pb  Pb7  1  0.49995856  0.49995195  0.00021467  1
  Cl  Cl8  1  0.49970056  0.25605260  0.99889647  1
  Cl  Cl9  1  0.24348562  0.00050107  0.25539431  1
  Cl  Cl10  1  0.75532888  0.00036544  0.25660447  1
  Cl  Cl11  1  0.99972000  0.24386188  0.50107941  1
  Cl  Cl12  1  0.24436883  0.99943391  0.74324620  1
  Cl  Cl13  1  0.75685045  0.99956669  0.74443923  1
  Cl  Cl14  1  0.50031192  0.74385253  0.00109507  1
  Cl  Cl15  1  0.74345608  0.49942780  0.24456161  1
  Cl  Cl16  1  0.25529305  0.49957173  0.24339316  1
  Cl  Cl17  1  0.00029601  0.75606144  0.49886656  1
  Cl  Cl18  1  0.25683423  0.50037319  0.75550211  1
  Cl  Cl19  1  0.74436071  0.50048431  0.75678181  1
