# generated using pymatgen
data_Cs2BaPtCl6
_symmetry_space_group_name_H-M   'P 1'
_cell_length_a   8.20045573
_cell_length_b   10.50924356
_cell_length_c   8.20029595
_cell_angle_alpha   90.01451350
_cell_angle_beta   79.71134014
_cell_angle_gamma   90.00958369
_symmetry_Int_Tables_number   1
_chemical_formula_structural   Cs2BaPtCl6
_chemical_formula_sum   'Cs4 Ba2 Pt2 Cl12'
_cell_volume   695.34273789
_cell_formula_units_Z   2
loop_
 _symmetry_equiv_pos_site_id
 _symmetry_equiv_pos_as_xyz
  1  'x, y, z'
loop_
 _atom_site_type_symbol
 _atom_site_label
 _atom_site_symmetry_multiplicity
 _atom_site_fract_x
 _atom_site_fract_y
 _atom_site_fract_z
 _atom_site_occupancy
  Cs  Cs0  1  0.50003897  0.24996201  0.50007036  1
  Cs  Cs1  1  0.00010886  0.24988599  0.99990817  1
  Cs  Cs2  1  0.49997941  0.75003272  0.49994277  1
  Cs  Cs3  1  0.99986001  0.74996808  0.00003486  1
  Ba  Ba4  1  0.49999446  0.99996169  0.00000524  1
  Ba  Ba5  1  0.00000068  0.49996184  0.49997475  1
  Pt  Pt6  1  0.00001422  0.99996191  0.50001934  1
  Pt  Pt7  1  0.49998058  0.49996195  0.99995902  1
  Cl  Cl8  1  0.50003618  0.28083948  0.99906339  1
  Cl  Cl9  1  0.21959762  0.00039603  0.28139678  1
  Cl  Cl10  1  0.73360818  0.00030322  0.23316179  1
  Cl  Cl11  1  0.00000021  0.21908265  0.50090324  1
  Cl  Cl12  1  0.26623195  0.99960686  0.76700735  1
  Cl  Cl13  1  0.78045646  0.99952883  0.71867638  1
  Cl  Cl14  1  0.49992785  0.71908428  0.00086329  1
  Cl  Cl15  1  0.76703036  0.49962795  0.26617800  1
  Cl  Cl16  1  0.28135785  0.49950631  0.21954415  1
  Cl  Cl17  1  0.00001985  0.78084115  0.49911984  1
  Cl  Cl18  1  0.23311842  0.50029214  0.73361455  1
  Cl  Cl19  1  0.71858324  0.50041925  0.78034552  1
