# generated using pymatgen
data_Cs2BaOsCl6
_symmetry_space_group_name_H-M   'P 1'
_cell_length_a   7.58635693
_cell_length_b   10.72750851
_cell_length_c   7.58639788
_cell_angle_alpha   90.00414299
_cell_angle_beta   89.99999497
_cell_angle_gamma   90.00004053
_symmetry_Int_Tables_number   1
_chemical_formula_structural   Cs2BaOsCl6
_chemical_formula_sum   'Cs4 Ba2 Os2 Cl12'
_cell_volume   617.40160596
_cell_formula_units_Z   2
loop_
 _symmetry_equiv_pos_site_id
 _symmetry_equiv_pos_as_xyz
  1  'x, y, z'
loop_
 _atom_site_type_symbol
 _atom_site_label
 _atom_site_symmetry_multiplicity
 _atom_site_fract_x
 _atom_site_fract_y
 _atom_site_fract_z
 _atom_site_occupancy
  Cs  Cs0  1  0.49977968  0.24973669  0.49979387  1
  Cs  Cs1  1  0.99977612  0.25018337  0.00019114  1
  Cs  Cs2  1  0.50021424  0.74973710  0.50014610  1
  Cs  Cs3  1  0.00021968  0.75018373  0.99983062  1
  Ba  Ba4  1  0.49999874  0.99995827  0.99982544  1
  Ba  Ba5  1  0.99999625  0.49996610  0.50015282  1
  Os  Os6  1  0.99999752  0.99996421  0.49988552  1
  Os  Os7  1  0.49999688  0.49995888  0.00009276  1
  Cl  Cl8  1  0.49979365  0.27635224  0.99929390  1
  Cl  Cl9  1  0.22322510  0.00029878  0.27591307  1
  Cl  Cl10  1  0.77595471  0.00023326  0.27672961  1
  Cl  Cl11  1  0.99980785  0.22357116  0.50068712  1
  Cl  Cl12  1  0.22394178  0.99964317  0.72308937  1
  Cl  Cl13  1  0.77686608  0.99967392  0.72390164  1
  Cl  Cl14  1  0.50020004  0.72356483  0.00077485  1
  Cl  Cl15  1  0.72321780  0.49962084  0.22407092  1
  Cl  Cl16  1  0.27594784  0.49969499  0.22324360  1
  Cl  Cl17  1  0.00018709  0.77635866  0.49919698  1
  Cl  Cl18  1  0.27687230  0.50025240  0.77606941  1
  Cl  Cl19  1  0.72395202  0.50027171  0.77690005  1
