# generated using pymatgen
data_Cs2HfHgCl6
_symmetry_space_group_name_H-M   'P 1'
_cell_length_a   7.98670174
_cell_length_b   11.29607817
_cell_length_c   7.98663877
_cell_angle_alpha   89.97327721
_cell_angle_beta   90.00008658
_cell_angle_gamma   89.99977784
_symmetry_Int_Tables_number   1
_chemical_formula_structural   Cs2HfHgCl6
_chemical_formula_sum   'Cs4 Hf2 Hg2 Cl12'
_cell_volume   720.54174971
_cell_formula_units_Z   2
loop_
 _symmetry_equiv_pos_site_id
 _symmetry_equiv_pos_as_xyz
  1  'x, y, z'
loop_
 _atom_site_type_symbol
 _atom_site_label
 _atom_site_symmetry_multiplicity
 _atom_site_fract_x
 _atom_site_fract_y
 _atom_site_fract_z
 _atom_site_occupancy
  Cs  Cs0  1  0.49981481  0.24982485  0.49981495  1
  Cs  Cs1  1  0.99981261  0.25010254  0.00016788  1
  Cs  Cs2  1  0.50017896  0.74982523  0.50012867  1
  Cs  Cs3  1  0.00018300  0.75010274  0.99984957  1
  Hf  Hf4  1  0.49999780  0.99995813  0.99989347  1
  Hf  Hf5  1  0.99999677  0.49996273  0.50008503  1
  Hg  Hg6  1  0.99999781  0.99996482  0.49982895  1
  Hg  Hg7  1  0.49999604  0.49995679  0.00014920  1
  Cl  Cl8  1  0.49985822  0.21648914  0.99924562  1
  Cl  Cl9  1  0.28318857  0.00017245  0.21610057  1
  Cl  Cl10  1  0.71616005  0.00024667  0.21674767  1
  Cl  Cl11  1  0.99987060  0.28343185  0.50073310  1
  Cl  Cl12  1  0.28379138  0.99963701  0.78308394  1
  Cl  Cl13  1  0.71685013  0.99977892  0.78373041  1
  Cl  Cl14  1  0.50013734  0.78342724  0.00055963  1
  Cl  Cl15  1  0.78318132  0.49974335  0.28388370  1
  Cl  Cl16  1  0.21615433  0.49967867  0.28322685  1
  Cl  Cl17  1  0.00012297  0.71649367  0.49941533  1
  Cl  Cl18  1  0.21685472  0.50014897  0.71624303  1
  Cl  Cl19  1  0.78379795  0.50027856  0.71690124  1
