# generated using pymatgen
data_Cs2OsPbCl6
_symmetry_space_group_name_H-M   'P 1'
_cell_length_a   7.42903066
_cell_length_b   10.50422330
_cell_length_c   7.42903437
_cell_angle_alpha   89.99748616
_cell_angle_beta   90.00000690
_cell_angle_gamma   89.99996425
_symmetry_Int_Tables_number   1
_chemical_formula_structural   Cs2OsPbCl6
_chemical_formula_sum   'Cs4 Os2 Pb2 Cl12'
_cell_volume   579.73358834
_cell_formula_units_Z   2
loop_
 _symmetry_equiv_pos_site_id
 _symmetry_equiv_pos_as_xyz
  1  'x, y, z'
loop_
 _atom_site_type_symbol
 _atom_site_label
 _atom_site_symmetry_multiplicity
 _atom_site_fract_x
 _atom_site_fract_y
 _atom_site_fract_z
 _atom_site_occupancy
  Cs  Cs0  1  0.49979732  0.24976710  0.49984952  1
  Cs  Cs1  1  0.99979339  0.25015294  0.00013520  1
  Cs  Cs2  1  0.50019763  0.74976673  0.50016735  1
  Cs  Cs3  1  0.00020160  0.75015263  0.99980939  1
  Os  Os4  1  0.49999775  0.99995958  0.99988519  1
  Os  Os5  1  0.99999691  0.49996394  0.50009302  1
  Pb  Pb6  1  0.99999792  0.99996451  0.49983781  1
  Pb  Pb7  1  0.49999580  0.49995858  0.00014027  1
  Cl  Cl8  1  0.49978518  0.22957683  0.99921069  1
  Cl  Cl9  1  0.27003431  0.00025676  0.22914430  1
  Cl  Cl10  1  0.72917432  0.00023821  0.22993148  1
  Cl  Cl11  1  0.99979820  0.27034785  0.50076969  1
  Cl  Cl12  1  0.27071973  0.99963298  0.76990861  1
  Cl  Cl13  1  0.73005921  0.99971412  0.77069210  1
  Cl  Cl14  1  0.50020976  0.77034143  0.00067642  1
  Cl  Cl15  1  0.77002818  0.49966300  0.27084064  1
  Cl  Cl16  1  0.22916724  0.49968958  0.27004299  1
  Cl  Cl17  1  0.00019586  0.72958149  0.49929610  1
  Cl  Cl18  1  0.23006424  0.50021283  0.72927839  1
  Cl  Cl19  1  0.77073082  0.50028326  0.73007964  1
