# generated using pymatgen
data_Cs2TlIrCl6
_symmetry_space_group_name_H-M   'P 1'
_cell_length_a   7.57009772
_cell_length_b   10.70009810
_cell_length_c   7.56994859
_cell_angle_alpha   89.98886681
_cell_angle_beta   90.00002273
_cell_angle_gamma   89.99969789
_symmetry_Int_Tables_number   1
_chemical_formula_structural   Cs2TlIrCl6
_chemical_formula_sum   'Cs4 Tl2 Ir2 Cl12'
_cell_volume   613.17179133
_cell_formula_units_Z   2
loop_
 _symmetry_equiv_pos_site_id
 _symmetry_equiv_pos_as_xyz
  1  'x, y, z'
loop_
 _atom_site_type_symbol
 _atom_site_label
 _atom_site_symmetry_multiplicity
 _atom_site_fract_x
 _atom_site_fract_y
 _atom_site_fract_z
 _atom_site_occupancy
  Cs  Cs0  1  0.49986715  0.24985748  0.49991067  1
  Cs  Cs1  1  0.99986383  0.25006409  0.00007361  1
  Cs  Cs2  1  0.50012808  0.74985884  0.50011546  1
  Cs  Cs3  1  0.00013079  0.75006430  0.99986349  1
  Ir  Ir4  1  0.49999784  0.99996004  0.99990384  1
  Ir  Ir5  1  0.99999657  0.49996255  0.50007409  1
  Tl  Tl6  1  0.99999805  0.99996494  0.49984562  1
  Tl  Tl7  1  0.49999547  0.49996085  0.00013116  1
  Cl  Cl8  1  0.49983667  0.22148663  0.99932903  1
  Cl  Cl9  1  0.27832313  0.00014796  0.22106393  1
  Cl  Cl10  1  0.72111945  0.00022411  0.22161715  1
  Cl  Cl11  1  0.99984404  0.27843686  0.50065193  1
  Cl  Cl12  1  0.27883136  0.99967920  0.77822117  1
  Cl  Cl13  1  0.72171655  0.99978669  0.77877344  1
  Cl  Cl14  1  0.50016024  0.77843344  0.00048422  1
  Cl  Cl15  1  0.77831650  0.49977121  0.27892006  1
  Cl  Cl16  1  0.22111334  0.49969912  0.27835728  1
  Cl  Cl17  1  0.00014875  0.72148898  0.49949164  1
  Cl  Cl18  1  0.22171992  0.50013742  0.72119812  1
  Cl  Cl19  1  0.77883764  0.50023962  0.72176289  1
