# generated using pymatgen
data_TlSbH12C2(I3N)2
_symmetry_space_group_name_H-M   'P 1'
_cell_length_a   8.67935002
_cell_length_b   12.49687885
_cell_length_c   8.52292198
_cell_angle_alpha   87.87473815
_cell_angle_beta   90.00580646
_cell_angle_gamma   90.02512377
_symmetry_Int_Tables_number   1
_chemical_formula_structural   TlSbH12C2(I3N)2
_chemical_formula_sum   'Tl2 Sb2 H24 C4 I12 N4'
_cell_volume   923.80093017
_cell_formula_units_Z   2
loop_
 _symmetry_equiv_pos_site_id
 _symmetry_equiv_pos_as_xyz
  1  'x, y, z'
loop_
 _atom_site_type_symbol
 _atom_site_label
 _atom_site_symmetry_multiplicity
 _atom_site_fract_x
 _atom_site_fract_y
 _atom_site_fract_z
 _atom_site_occupancy
  C  C0  1  0.39637906  0.25022950  0.41562319  1
  C  C1  1  0.89772108  0.24994376  0.08568253  1
  C  C2  1  0.60361511  0.74977388  0.58438875  1
  C  C3  1  0.10228703  0.75005640  0.91432836  1
  N  N4  1  0.53387204  0.24924369  0.51966732  1
  N  N5  1  0.03448641  0.25085066  0.98067559  1
  N  N6  1  0.46612034  0.75076020  0.48034692  1
  N  N7  1  0.96552133  0.74914890  0.01933467  1
  H  H8  1  0.43535523  0.25148628  0.29331575  1
  H  H9  1  0.32873846  0.17776680  0.44127961  1
  H  H10  1  0.32820083  0.32178575  0.43738558  1
  H  H11  1  0.60124728  0.18244530  0.49832631  1
  H  H12  1  0.60097142  0.31729717  0.49683167  1
  H  H13  1  0.50441738  0.24682985  0.63857090  1
  H  H14  1  0.93753390  0.24876930  0.20768039  1
  H  H15  1  0.82918456  0.17843569  0.06448841  1
  H  H16  1  0.83010356  0.32248244  0.06042030  1
  H  H17  1  0.10157215  0.18272101  0.00319279  1
  H  H18  1  0.10217793  0.31758779  0.00154414  1
  H  H19  1  0.00431684  0.25319750  0.86200899  1
  H  H20  1  0.56464144  0.74851739  0.70669679  1
  H  H21  1  0.67179224  0.67821739  0.56262509  1
  H  H22  1  0.67125613  0.82223634  0.55873069  1
  H  H23  1  0.39874547  0.81755839  0.50168984  1
  H  H24  1  0.39902128  0.68270640  0.50318332  1
  H  H25  1  0.49557341  0.75317454  0.36144320  1
  H  H26  1  0.06247226  0.75123397  0.79232972  1
  H  H27  1  0.17082390  0.82156426  0.93552410  1
  H  H28  1  0.16990330  0.67751780  0.93958572  1
  H  H29  1  0.89843536  0.81727663  0.99682002  1
  H  H30  1  0.89783169  0.68241035  0.99846636  1
  H  H31  1  0.99569213  0.74680091  0.13800275  1
  Sb  Sb32  1  0.50000724  0.00000376  0.00000598  1
  Sb  Sb33  1  0.99999583  0.50000386  0.50000751  1
  Tl  Tl34  1  0.00000614  0.00000560  0.50000360  1
  Tl  Tl35  1  0.49999456  0.50000510  0.00000801  1
  I  I36  1  0.47305314  0.23925225  0.93766595  1
  I  I37  1  0.19008629  0.00857257  0.15998240  1
  I  I38  1  0.66111563  0.02204928  0.31258671  1
  I  I39  1  0.97243143  0.26078836  0.56294588  1
  I  I40  1  0.33889283  0.97795808  0.68742794  1
  I  I41  1  0.80992735  0.99142890  0.84002770  1
  I  I42  1  0.52695699  0.76075617  0.06234954  1
  I  I43  1  0.69015026  0.49118623  0.33979406  1
  I  I44  1  0.16136316  0.47814995  0.18755269  1
  I  I45  1  0.02756239  0.73921981  0.43706857  1
  I  I46  1  0.30984256  0.50881710  0.66021878  1
  I  I47  1  0.83862739  0.52185501  0.81246150  1
