# generated using pymatgen
data_Cs2HgPtCl6
_symmetry_space_group_name_H-M   'P 1'
_cell_length_a   7.54697572
_cell_length_b   10.64153085
_cell_length_c   7.54701229
_cell_angle_alpha   89.99212327
_cell_angle_beta   89.99982776
_cell_angle_gamma   89.99971711
_symmetry_Int_Tables_number   1
_chemical_formula_structural   Cs2HgPtCl6
_chemical_formula_sum   'Cs4 Hg2 Pt2 Cl12'
_cell_volume   606.11092805
_cell_formula_units_Z   2
loop_
 _symmetry_equiv_pos_site_id
 _symmetry_equiv_pos_as_xyz
  1  'x, y, z'
loop_
 _atom_site_type_symbol
 _atom_site_label
 _atom_site_symmetry_multiplicity
 _atom_site_fract_x
 _atom_site_fract_y
 _atom_site_fract_z
 _atom_site_occupancy
  Cs  Cs0  1  0.49992760  0.24993566  0.49991905  1
  Cs  Cs1  1  0.99992290  0.25000229  0.00006296  1
  Cs  Cs2  1  0.50006820  0.74992829  0.50005840  1
  Cs  Cs3  1  0.00007232  0.74998330  0.99992070  1
  Pt  Pt4  1  0.49999737  0.99995948  0.99992639  1
  Pt  Pt5  1  0.99999692  0.49996205  0.50005210  1
  Hg  Hg6  1  0.99999731  0.99996201  0.49990910  1
  Hg  Hg7  1  0.49999638  0.49995865  0.00006990  1
  Cl  Cl8  1  0.49990521  0.22449713  0.99966430  1
  Cl  Cl9  1  0.27669177  0.00002171  0.22295968  1
  Cl  Cl10  1  0.72302776  0.00008739  0.22323254  1
  Cl  Cl11  1  0.99991087  0.27542512  0.50031501  1
  Cl  Cl12  1  0.27696076  0.99983210  0.77662303  1
  Cl  Cl13  1  0.72330940  0.99989981  0.77689624  1
  Cl  Cl14  1  0.50008952  0.77542147  0.00021232  1
  Cl  Cl15  1  0.77669028  0.49990034  0.27702460  1
  Cl  Cl16  1  0.22302341  0.49983552  0.27674249  1
  Cl  Cl17  1  0.00008333  0.72449866  0.49976508  1
  Cl  Cl18  1  0.22330998  0.50002301  0.72307614  1
  Cl  Cl19  1  0.77696409  0.50009033  0.72335877  1
