# generated using pymatgen
data_Cs2BiAuCl6
_symmetry_space_group_name_H-M   'P 1'
_cell_length_a   7.65327082
_cell_length_b   10.81098348
_cell_length_c   7.65320231
_cell_angle_alpha   90.00687732
_cell_angle_beta   89.99903754
_cell_angle_gamma   90.00015401
_symmetry_Int_Tables_number   1
_chemical_formula_structural   Cs2BiAuCl6
_chemical_formula_sum   'Cs4 Bi2 Au2 Cl12'
_cell_volume   633.22124315
_cell_formula_units_Z   2
loop_
 _symmetry_equiv_pos_site_id
 _symmetry_equiv_pos_as_xyz
  1  'x, y, z'
loop_
 _atom_site_type_symbol
 _atom_site_label
 _atom_site_symmetry_multiplicity
 _atom_site_fract_x
 _atom_site_fract_y
 _atom_site_fract_z
 _atom_site_occupancy
  Cs  Cs0  1  0.49980134  0.24979434  0.49980364  1
  Cs  Cs1  1  0.99979632  0.25012688  0.00018111  1
  Cs  Cs2  1  0.50019282  0.74979740  0.50019777  1
  Cs  Cs3  1  0.00019842  0.75012943  0.99977896  1
  Au  Au4  1  0.49999914  0.99995287  0.99980649  1
  Au  Au5  1  0.99999629  0.49996634  0.50017424  1
  Bi  Bi6  1  0.99999790  0.99996534  0.49985363  1
  Bi  Bi7  1  0.49999633  0.49995574  0.00012543  1
  Cl  Cl8  1  0.49980456  0.24879831  0.99937183  1
  Cl  Cl9  1  0.25066548  0.00022531  0.24867075  1
  Cl  Cl10  1  0.74870808  0.00017522  0.24930297  1
  Cl  Cl11  1  0.99981739  0.25112237  0.50060635  1
  Cl  Cl12  1  0.25118972  0.99970736  0.75053644  1
  Cl  Cl13  1  0.74942543  0.99974127  0.75116519  1
  Cl  Cl14  1  0.50019062  0.75111451  0.00062061  1
  Cl  Cl15  1  0.75065547  0.49969656  0.25130744  1
  Cl  Cl16  1  0.24869777  0.49975218  0.25067647  1
  Cl  Cl17  1  0.00017671  0.74880685  0.49935068  1
  Cl  Cl18  1  0.24943389  0.50018512  0.74881263  1
  Cl  Cl19  1  0.75120170  0.50021093  0.74944616  1
