# generated using pymatgen
data_BaH12PbC2(I3N)2
_symmetry_space_group_name_H-M   'P 1'
_cell_length_a   8.93319500
_cell_length_b   12.84755486
_cell_length_c   8.62749126
_cell_angle_alpha   90.56604623
_cell_angle_beta   90.00427999
_cell_angle_gamma   89.99922886
_symmetry_Int_Tables_number   1
_chemical_formula_structural   BaH12PbC2(I3N)2
_chemical_formula_sum   'Ba2 H24 Pb2 C4 I12 N4'
_cell_volume   990.12637090
_cell_formula_units_Z   2
loop_
 _symmetry_equiv_pos_site_id
 _symmetry_equiv_pos_as_xyz
  1  'x, y, z'
loop_
 _atom_site_type_symbol
 _atom_site_label
 _atom_site_symmetry_multiplicity
 _atom_site_fract_x
 _atom_site_fract_y
 _atom_site_fract_z
 _atom_site_occupancy
  C  C0  1  0.39474063  0.24981323  0.41978143  1
  C  C1  1  0.89545326  0.25030422  0.08085121  1
  C  C2  1  0.60525277  0.75018539  0.58021345  1
  C  C3  1  0.10454778  0.74968668  0.91915497  1
  N  N4  1  0.53190851  0.25006628  0.51731295  1
  N  N5  1  0.03229560  0.24995612  0.98285371  1
  N  N6  1  0.46808881  0.74992680  0.48267598  1
  N  N7  1  0.96771611  0.75003641  0.01716461  1
  H  H8  1  0.42810838  0.24993565  0.29750303  1
  H  H9  1  0.32926510  0.17998294  0.44507734  1
  H  H10  1  0.33018835  0.32022377  0.44618139  1
  H  H11  1  0.59664752  0.18422021  0.49288041  1
  H  H12  1  0.59626536  0.31566903  0.49272598  1
  H  H13  1  0.50696262  0.25089498  0.63569411  1
  H  H14  1  0.92926589  0.25021060  0.20301037  1
  H  H15  1  0.83075443  0.17990505  0.05476666  1
  H  H16  1  0.82995294  0.32015706  0.05575965  1
  H  H17  1  0.09666277  0.18433404  0.00726108  1
  H  H18  1  0.09715685  0.31578011  0.00705588  1
  H  H19  1  0.00698738  0.24911833  0.86454557  1
  H  H20  1  0.57187952  0.75006501  0.70249065  1
  H  H21  1  0.66980683  0.67977502  0.55381563  1
  H  H22  1  0.67072633  0.82001615  0.55491663  1
  H  H23  1  0.40334666  0.81577234  0.50710137  1
  H  H24  1  0.40373413  0.68432537  0.50726436  1
  H  H25  1  0.49303958  0.74909384  0.36429462  1
  H  H26  1  0.07072346  0.74978997  0.79699869  1
  H  H27  1  0.16925898  0.82007997  0.94523769  1
  H  H28  1  0.17004323  0.67982867  0.94423045  1
  H  H29  1  0.90334354  0.81565612  0.99276223  1
  H  H30  1  0.90285852  0.68420778  0.99297629  1
  H  H31  1  0.99303653  0.75087586  0.13547226  1
  Ba  Ba32  1  0.50000512  0.00001120  0.99997824  1
  Ba  Ba33  1  0.99999129  0.50002487  0.50006234  1
  Pb  Pb34  1  0.99999262  0.00001463  0.49994543  1
  Pb  Pb35  1  0.49999267  0.50002060  1.00001100  1
  I  I36  1  0.46161250  0.25667484  0.92626168  1
  I  I37  1  0.16270548  0.02436545  0.17260491  1
  I  I38  1  0.67882672  0.02016086  0.34251378  1
  I  I39  1  0.96145219  0.24336313  0.57397334  1
  I  I40  1  0.32115817  0.97983609  0.65747638  1
  I  I41  1  0.83734210  0.97563643  0.82741616  1
  I  I42  1  0.53838057  0.74335097  0.07375148  1
  I  I43  1  0.66261047  0.47554467  0.32748425  1
  I  I44  1  0.17888911  0.47990590  0.15759627  1
  I  I45  1  0.03851772  0.75666850  0.42595979  1
  I  I46  1  0.33737319  0.52452135  0.67267035  1
  I  I47  1  0.82115542  0.52008576  0.84256057  1
