# generated using pymatgen
data_BaHgH12C2(I3N)2
_symmetry_space_group_name_H-M   'P 1'
_cell_length_a   8.68196587
_cell_length_b   12.65703710
_cell_length_c   8.50989848
_cell_angle_alpha   91.18610304
_cell_angle_beta   90.00597187
_cell_angle_gamma   89.99498038
_symmetry_Int_Tables_number   1
_chemical_formula_structural   BaHgH12C2(I3N)2
_chemical_formula_sum   'Ba2 Hg2 H24 C4 I12 N4'
_cell_volume   934.93504210
_cell_formula_units_Z   2
loop_
 _symmetry_equiv_pos_site_id
 _symmetry_equiv_pos_as_xyz
  1  'x, y, z'
loop_
 _atom_site_type_symbol
 _atom_site_label
 _atom_site_symmetry_multiplicity
 _atom_site_fract_x
 _atom_site_fract_y
 _atom_site_fract_z
 _atom_site_occupancy
  C  C0  1  0.39610975  0.24968515  0.41555069  1
  C  C1  1  0.89736616  0.25056633  0.08569396  1
  C  C2  1  0.60388708  0.75031735  0.58446397  1
  C  C3  1  0.10264191  0.74943429  0.91432093  1
  N  N4  1  0.53376472  0.25026731  0.51921037  1
  N  N5  1  0.03433292  0.24980327  0.98112326  1
  N  N6  1  0.46623199  0.74973631  0.48080450  1
  N  N7  1  0.96567698  0.75019423  0.01889410  1
  H  H8  1  0.43451861  0.24979113  0.29288089  1
  H  H9  1  0.32741860  0.17912955  0.43819644  1
  H  H10  1  0.32914701  0.32130323  0.44066957  1
  H  H11  1  0.60122385  0.18338814  0.49700596  1
  H  H12  1  0.60066495  0.31657248  0.49651974  1
  H  H13  1  0.50481454  0.25209923  0.63856082  1
  H  H14  1  0.93659896  0.25050099  0.20809053  1
  H  H15  1  0.83012896  0.17898245  0.06116567  1
  H  H16  1  0.82862829  0.32117405  0.06341750  1
  H  H17  1  0.10126647  0.18344220  0.00347611  1
  H  H18  1  0.10202153  0.31663468  0.00289634  1
  H  H19  1  0.00468251  0.24796452  0.86197509  1
  H  H20  1  0.56547878  0.75021322  0.70713382  1
  H  H21  1  0.67084883  0.67869900  0.55934617  1
  H  H22  1  0.67257933  0.82087274  0.56181700  1
  H  H23  1  0.39877329  0.81661493  0.50300977  1
  H  H24  1  0.39933112  0.68343019  0.50349554  1
  H  H25  1  0.49518177  0.74790419  0.36145457  1
  H  H26  1  0.06340716  0.74950160  0.79192510  1
  H  H27  1  0.16987948  0.82101776  0.93885205  1
  H  H28  1  0.17138024  0.67882608  0.93659280  1
  H  H29  1  0.89874055  0.81655413  0.99654408  1
  H  H30  1  0.89799061  0.68336184  0.99711957  1
  H  H31  1  0.99532888  0.75203215  0.13804164  1
  Ba  Ba32  1  0.50000065  0.00001046  0.00000904  1
  Ba  Ba33  1  0.99998547  0.50000016  0.49998850  1
  Hg  Hg34  1  0.00000240  0.00000145  0.50001392  1
  Hg  Hg35  1  0.49999513  0.50001667  0.99998494  1
  I  I36  1  0.47065793  0.26043746  0.93328658  1
  I  I37  1  0.15722507  0.02265795  0.18397837  1
  I  I38  1  0.69065066  0.01292440  0.34629362  1
  I  I39  1  0.97013054  0.23959501  0.56729084  1
  I  I40  1  0.30935946  0.98708126  0.65371995  1
  I  I41  1  0.84277779  0.97734066  0.81604301  1
  I  I42  1  0.52934595  0.73957866  0.06672370  1
  I  I43  1  0.65712908  0.47721017  0.31604043  1
  I  I44  1  0.19067230  0.48730140  0.15370939  1
  I  I45  1  0.02987079  0.76040842  0.43272976  1
  I  I46  1  0.34284736  0.52279312  0.68394757  1
  I  I47  1  0.80932730  0.51270628  0.84628840  1
