# generated using pymatgen
data_BaH12PtC2(I3N)2
_symmetry_space_group_name_H-M   'P 1'
_cell_length_a   8.23411095
_cell_length_b   13.74348836
_cell_length_c   8.10092127
_cell_angle_alpha   88.20670560
_cell_angle_beta   90.00012422
_cell_angle_gamma   90.00043545
_symmetry_Int_Tables_number   1
_chemical_formula_structural   BaH12PtC2(I3N)2
_chemical_formula_sum   'Ba2 H24 Pt2 C4 I12 N4'
_cell_volume   916.29506585
_cell_formula_units_Z   2
loop_
 _symmetry_equiv_pos_site_id
 _symmetry_equiv_pos_as_xyz
  1  'x, y, z'
loop_
 _atom_site_type_symbol
 _atom_site_label
 _atom_site_symmetry_multiplicity
 _atom_site_fract_x
 _atom_site_fract_y
 _atom_site_fract_z
 _atom_site_occupancy
  C  C0  1  0.39459234  0.25119621  0.41203304  1
  C  C1  1  0.89543666  0.24902227  0.08878631  1
  C  C2  1  0.60540278  0.74880807  0.58797690  1
  C  C3  1  0.10456747  0.75098212  0.91122577  1
  N  N4  1  0.54486362  0.24838481  0.51275112  1
  N  N5  1  0.04521782  0.25162239  0.98731798  1
  N  N6  1  0.45513677  0.75162169  0.48726157  1
  N  N7  1  0.95478687  0.74837662  0.01269581  1
  H  H8  1  0.42780106  0.25251299  0.28088824  1
  H  H9  1  0.32092111  0.18692412  0.44365850  1
  H  H10  1  0.32709003  0.31723296  0.43995605  1
  H  H11  1  0.61384103  0.18665690  0.49027955  1
  H  H12  1  0.61795078  0.30824623  0.48609639  1
  H  H13  1  0.51939130  0.24763067  0.64028386  1
  H  H14  1  0.92925114  0.24776480  0.21974560  1
  H  H15  1  0.82758673  0.18302093  0.06134665  1
  H  H16  1  0.82179664  0.31334604  0.05738064  1
  H  H17  1  0.11826326  0.19170859  0.01374767  1
  H  H18  1  0.11446841  0.31330512  0.00942558  1
  H  H19  1  0.01918375  0.25235521  0.85992463  1
  H  H20  1  0.57219585  0.74749247  0.71912156  1
  H  H21  1  0.67290571  0.68277060  0.56005443  1
  H  H22  1  0.67907802  0.81308008  0.55635092  1
  H  H23  1  0.38615947  0.81335079  0.50973113  1
  H  H24  1  0.38204329  0.69176067  0.51391450  1
  H  H25  1  0.48060693  0.75237485  0.35972541  1
  H  H26  1  0.07075145  0.75224152  0.78026675  1
  H  H27  1  0.17241322  0.81698430  0.93866854  1
  H  H28  1  0.17821141  0.68665943  0.94262688  1
  H  H29  1  0.88173665  0.80828865  0.98626986  1
  H  H30  1  0.88554059  0.68669252  0.99058643  1
  H  H31  1  0.98082224  0.74764283  0.14008882  1
  Ba  Ba32  1  0.50000177  0.00000103  0.00000606  1
  Ba  Ba33  1  1.00000070  0.50000106  0.50000851  1
  Pt  Pt34  1  0.00000056  0.00000148  0.50000583  1
  Pt  Pt35  1  0.50000002  0.50000101  0.00000848  1
  I  I36  1  0.46535722  0.23703988  0.93068068  1
  I  I37  1  0.12915761  0.01583831  0.20204362  1
  I  I38  1  0.70637774  0.01842502  0.37294013  1
  I  I39  1  0.96464705  0.26301173  0.56980978  1
  I  I40  1  0.29362328  0.98157977  0.62707230  1
  I  I41  1  0.87084373  0.98416292  0.79796772  1
  I  I42  1  0.53464837  0.76296216  0.06932914  1
  I  I43  1  0.62912768  0.48419053  0.29798992  1
  I  I44  1  0.20636589  0.48159705  0.12704714  1
  I  I45  1  0.03535108  0.73699038  0.43020504  1
  I  I46  1  0.37087305  0.51581420  0.70202704  1
  I  I47  1  0.79363360  0.51840427  0.87296810  1
