# generated using pymatgen
data_BaH12OsC2(I3N)2
_symmetry_space_group_name_H-M   'P 1'
_cell_length_a   8.40818073
_cell_length_b   12.07224463
_cell_length_c   8.25504372
_cell_angle_alpha   92.54740250
_cell_angle_beta   90.00463520
_cell_angle_gamma   89.98566061
_symmetry_Int_Tables_number   1
_chemical_formula_structural   BaH12OsC2(I3N)2
_chemical_formula_sum   'Ba2 H24 Os2 C4 I12 N4'
_cell_volume   837.10520714
_cell_formula_units_Z   2
loop_
 _symmetry_equiv_pos_site_id
 _symmetry_equiv_pos_as_xyz
  1  'x, y, z'
loop_
 _atom_site_type_symbol
 _atom_site_label
 _atom_site_symmetry_multiplicity
 _atom_site_fract_x
 _atom_site_fract_y
 _atom_site_fract_z
 _atom_site_occupancy
  C  C0  1  0.39489791  0.24973801  0.41356784  1
  C  C1  1  0.89610542  0.25052915  0.08759272  1
  C  C2  1  0.60509964  0.75026556  0.58644498  1
  C  C3  1  0.10390124  0.74947268  0.91242155  1
  N  N4  1  0.53603195  0.25096192  0.52075319  1
  N  N5  1  0.03654563  0.24909768  0.97949615  1
  N  N6  1  0.46396552  0.74904227  0.47925982  1
  N  N7  1  0.96346243  0.75089998  0.02052001  1
  H  H8  1  0.43483964  0.24871520  0.28717176  1
  H  H9  1  0.32328157  0.17646019  0.43602307  1
  H  H10  1  0.32622594  0.32527395  0.44023659  1
  H  H11  1  0.60540760  0.18033564  0.49711455  1
  H  H12  1  0.60556432  0.31971100  0.49826995  1
  H  H13  1  0.50548675  0.25462202  0.64387303  1
  H  H14  1  0.93692808  0.25161350  0.21371355  1
  H  H15  1  0.82718230  0.17503472  0.06160574  1
  H  H16  1  0.82441335  0.32386409  0.06552404  1
  H  H17  1  0.10612585  0.18028411  0.00162130  1
  H  H18  1  0.10612058  0.31965848  0.00267289  1
  H  H19  1  0.00527962  0.24541929  0.85655851  1
  H  H20  1  0.56515780  0.75128916  0.71284099  1
  H  H21  1  0.67377039  0.67472891  0.55977733  1
  H  H22  1  0.67671733  0.82354273  0.56398954  1
  H  H23  1  0.39459005  0.81966834  0.50289960  1
  H  H24  1  0.39443323  0.68029294  0.50174444  1
  H  H25  1  0.49450966  0.74538228  0.35614005  1
  H  H26  1  0.06307710  0.74839035  0.78630143  1
  H  H27  1  0.17282397  0.82496678  0.93841190  1
  H  H28  1  0.17559463  0.67613763  0.93448557  1
  H  H29  1  0.89387881  0.81971238  0.99839853  1
  H  H30  1  0.89388995  0.68033817  0.99734182  1
  H  H31  1  0.99473015  0.75457735  0.14345719  1
  Ba  Ba32  1  0.50000367  0.00000655  0.00000748  1
  Ba  Ba33  1  0.99999389  0.50000135  0.49999668  1
  Os  Os34  1  0.00000172  0.00000224  0.50000820  1
  Os  Os35  1  0.49999613  0.50000548  0.99999936  1
  I  I36  1  0.47491969  0.27666511  0.94371513  1
  I  I37  1  0.15018031  0.01762780  0.20796420  1
  I  I38  1  0.71309515  0.00453070  0.34739960  1
  I  I39  1  0.97431481  0.22331022  0.55683707  1
  I  I40  1  0.28690826  0.99547415  0.65261777  1
  I  I41  1  0.84982507  0.98237336  0.79205215  1
  I  I42  1  0.52507906  0.72334597  0.05629158  1
  I  I43  1  0.65001295  0.48235768  0.29211105  1
  I  I44  1  0.21305212  0.49564112  0.15252032  1
  I  I45  1  0.02568637  0.77669387  0.44318085  1
  I  I46  1  0.34997601  0.51764950  0.70788730  1
  I  I47  1  0.78694010  0.50436670  0.84747820  1
