# generated using pymatgen
data_HfHgH12C2(I3N)2
_symmetry_space_group_name_H-M   'P 1'
_cell_length_a   8.65056088
_cell_length_b   12.50170709
_cell_length_c   8.51699299
_cell_angle_alpha   83.98242472
_cell_angle_beta   89.99898082
_cell_angle_gamma   90.05778012
_symmetry_Int_Tables_number   1
_chemical_formula_structural   HfHgH12C2(I3N)2
_chemical_formula_sum   'Hf2 Hg2 H24 C4 I12 N4'
_cell_volume   916.00950126
_cell_formula_units_Z   2
loop_
 _symmetry_equiv_pos_site_id
 _symmetry_equiv_pos_as_xyz
  1  'x, y, z'
loop_
 _atom_site_type_symbol
 _atom_site_label
 _atom_site_symmetry_multiplicity
 _atom_site_fract_x
 _atom_site_fract_y
 _atom_site_fract_z
 _atom_site_occupancy
  C  C0  1  0.39876220  0.24993737  0.41414998  1
  C  C1  1  0.89976625  0.25007338  0.08680797  1
  C  C2  1  0.60123346  0.75006531  0.58586628  1
  C  C3  1  0.10024229  0.74992813  0.91320173  1
  N  N4  1  0.53814202  0.24713273  0.51699691  1
  N  N5  1  0.03862014  0.25287015  0.98320313  1
  N  N6  1  0.46185082  0.75287206  0.48302187  1
  N  N7  1  0.96138734  0.74712815  0.01680546  1
  H  H8  1  0.43626364  0.25466128  0.29072776  1
  H  H9  1  0.33160571  0.17635077  0.44456356  1
  H  H10  1  0.33032385  0.32079272  0.43429492  1
  H  H11  1  0.60668895  0.18156749  0.49882419  1
  H  H12  1  0.60404066  0.31685881  0.49159226  1
  H  H13  1  0.50951225  0.24135528  0.63695026  1
  H  H14  1  0.93791249  0.24536551  0.21002045  1
  H  H15  1  0.83096295  0.17921296  0.06707543  1
  H  H16  1  0.83274036  0.32366942  0.05677907  1
  H  H17  1  0.10440028  0.18315893  0.00829891  1
  H  H18  1  0.10747863  0.31845162  0.00095809  1
  H  H19  1  0.00940348  0.25861156  0.86340285  1
  H  H20  1  0.56373444  0.74534114  0.70928928  1
  H  H21  1  0.66966911  0.67920932  0.56571909  1
  H  H22  1  0.66839097  0.82365113  0.55545203  1
  H  H23  1  0.39330585  0.81843741  0.50119666  1
  H  H24  1  0.39595237  0.68314611  0.50842549  1
  H  H25  1  0.49047995  0.75865063  0.36306797  1
  H  H26  1  0.06209711  0.75463767  0.78998879  1
  H  H27  1  0.16904416  0.82078859  0.93293773  1
  H  H28  1  0.16726935  0.67633233  0.94322873  1
  H  H29  1  0.89560550  0.81683879  0.99171198  1
  H  H30  1  0.89253080  0.68154617  0.99904797  1
  H  H31  1  0.99060274  0.74138536  0.13660622  1
  Hf  Hf32  1  0.50000466  0.00000590  0.00001165  1
  Hf  Hf33  1  0.99999434  0.50000033  0.49999933  1
  Hg  Hg34  1  0.00000614  0.99999867  0.50001303  1
  Hg  Hg35  1  0.49999205  0.50001402  0.99998909  1
  I  I36  1  0.47701854  0.22760987  0.93349886  1
  I  I37  1  0.20272761  -0.00110137  0.14211993  1
  I  I38  1  0.63818067  0.02241729  0.29720335  1
  I  I39  1  0.97638589  0.27241378  0.56676554  1
  I  I40  1  0.36182993  0.97759381  0.70281926  1
  I  I41  1  0.79728052  1.00110657  0.85790140  1
  I  I42  1  0.52299106  0.77240227  0.06652629  1
  I  I43  1  0.70290109  0.50095705  0.35748301  1
  I  I44  1  0.13854890  0.47772623  0.20297394  1
  I  I45  1  0.02360379  0.72758740  0.43324043  1
  I  I46  1  0.29709110  0.49904326  0.64251057  1
  I  I47  1  0.86144731  0.52227497  0.79702789  1
