# generated using pymatgen
data_BeH12PtC2(I3N)2
_symmetry_space_group_name_H-M   'P 1'
_cell_length_a   7.14333016
_cell_length_b   11.50710095
_cell_length_c   9.73459448
_cell_angle_alpha   95.40721188
_cell_angle_beta   89.99550154
_cell_angle_gamma   89.99831491
_symmetry_Int_Tables_number   1
_chemical_formula_structural   BeH12PtC2(I3N)2
_chemical_formula_sum   'Be2 H24 Pt2 C4 I12 N4'
_cell_volume   796.61344987
_cell_formula_units_Z   2
loop_
 _symmetry_equiv_pos_site_id
 _symmetry_equiv_pos_as_xyz
  1  'x, y, z'
loop_
 _atom_site_type_symbol
 _atom_site_label
 _atom_site_symmetry_multiplicity
 _atom_site_fract_x
 _atom_site_fract_y
 _atom_site_fract_z
 _atom_site_occupancy
  C  C0  1  0.31686682  0.25516215  0.37020609  1
  C  C1  1  0.85891289  0.26334776  0.11635143  1
  C  C2  1  0.64116133  0.76329811  0.61641532  1
  C  C3  1  0.18313915  0.75507040  0.87032512  1
  N  N4  1  0.42568766  0.25330014  0.49947189  1
  N  N5  1  0.98331852  0.24154855  0.99487890  1
  N  N6  1  0.51668930  0.74152975  0.49499217  1
  N  N7  1  0.07425547  0.75336543  0.99959549  1
  H  H8  1  0.41167560  0.23827145  0.28227860  1
  H  H9  1  0.20927691  0.18701033  0.36799742  1
  H  H10  1  0.25388096  0.34170528  0.36822765  1
  H  H11  1  0.46722045  0.16930747  0.51595847  1
  H  H12  1  0.54358165  0.30630041  0.49538235  1
  H  H13  1  0.34986123  0.28617551  0.58545843  1
  H  H14  1  0.94159391  0.25841212  0.21028949  1
  H  H15  1  0.74786530  0.19755854  0.10993036  1
  H  H16  1  0.79839082  0.35064049  0.11504144  1
  H  H17  1  0.05074694  0.16151915  0.99327463  1
  H  H18  1  0.08761468  0.30518436  0.99574688  1
  H  H19  1  0.91048515  0.24147314  0.90265738  1
  H  H20  1  0.55863085  0.75805916  0.71037914  1
  H  H21  1  0.75247496  0.69767683  0.60975071  1
  H  H22  1  0.70132015  0.85069987  0.61528555  1
  H  H23  1  0.41219014  0.80505609  0.49604292  1
  H  H24  1  0.44953948  0.66140580  0.49325276  1
  H  H25  1  0.58942496  0.74168308  0.40274745  1
  H  H26  1  0.08831495  0.73827754  0.78240326  1
  H  H27  1  0.24639098  0.84153447  0.86831933  1
  H  H28  1  0.29052395  0.68678913  0.86813353  1
  H  H29  1  0.95647156  0.80646085  0.99546551  1
  H  H30  1  0.03254443  0.66941918  0.01613309  1
  H  H31  1  0.15010549  0.78620889  0.08557307  1
  Be  Be32  1  0.58460525  0.92758342  0.09226652  1
  Be  Be33  1  0.91536888  0.42759404  0.59226514  1
  Pt  Pt34  1  0.99505764  0.00884721  0.48399852  1
  Pt  Pt35  1  0.50493552  0.50886704  0.98399033  1
  I  I36  1  0.44388583  0.29409648  0.88266357  1
  I  I37  1  0.28452817  0.01180784  0.10929622  1
  I  I38  1  0.69120386  0.01677290  0.32991973  1
  I  I39  1  0.89900958  0.21330028  0.62641010  1
  I  I40  1  0.28511171  0.00051968  0.64900282  1
  I  I41  1  0.76308815  0.97037102  0.90261963  1
  I  I42  1  0.60092270  0.71330667  0.12645100  1
  I  I43  1  0.73691765  0.47035726  0.40260655  1
  I  I44  1  0.21479209  0.50054243  0.14894468  1
  I  I45  1  0.05616565  0.79407306  0.38269956  1
  I  I46  1  0.21545819  0.51178409  0.60927790  1
  I  I47  1  0.80881622  0.51680345  0.82991851  1
