# generated using pymatgen
data_HfH12PtC2(I3N)2
_symmetry_space_group_name_H-M   'P 1'
_cell_length_a   7.77739816
_cell_length_b   12.48348707
_cell_length_c   8.73010648
_cell_angle_alpha   85.00815192
_cell_angle_beta   100.25692964
_cell_angle_gamma   92.23311902
_symmetry_Int_Tables_number   1
_chemical_formula_structural   HfH12PtC2(I3N)2
_chemical_formula_sum   'Hf2 H24 Pt2 C4 I12 N4'
_cell_volume   830.65073135
_cell_formula_units_Z   2
loop_
 _symmetry_equiv_pos_site_id
 _symmetry_equiv_pos_as_xyz
  1  'x, y, z'
loop_
 _atom_site_type_symbol
 _atom_site_label
 _atom_site_symmetry_multiplicity
 _atom_site_fract_x
 _atom_site_fract_y
 _atom_site_fract_z
 _atom_site_occupancy
  C  C0  1  0.46525475  0.22031524  0.41922960  1
  C  C1  1  0.00455797  0.24432491  0.06001098  1
  C  C2  1  0.50271207  0.77174674  0.58699948  1
  C  C3  1  0.00565606  0.73535460  0.83377375  1
  N  N4  1  0.51621234  0.22953848  0.58908340  1
  N  N5  1  0.01694484  0.29156995  0.90099115  1
  N  N6  1  0.48542551  0.75377224  0.41847870  1
  N  N7  1  0.99794540  0.74244886  0.00143467  1
  H  H8  1  0.58195120  0.23369191  0.36530931  1
  H  H9  1  0.41197662  0.13903200  0.40058412  1
  H  H10  1  0.36705299  0.27976243  0.36849076  1
  H  H11  1  0.64750150  0.19276063  0.62868282  1
  H  H12  1  0.53049971  0.30883685  0.61542871  1
  H  H13  1  0.42875184  0.19034005  0.65256044  1
  H  H14  1  0.13409714  0.21917103  0.12025753  1
  H  H15  1  0.91480852  0.17428458  0.05215042  1
  H  H16  1  0.95438907  0.30447589  0.12338517  1
  H  H17  1  0.96764016  0.23355043  0.81106122  1
  H  H18  1  0.14366149  0.31285917  0.88843346  1
  H  H19  1  0.94330126  0.36007527  0.87340452  1
  H  H20  1  0.37168993  0.77654481  0.61494840  1
  H  H21  1  0.57075671  0.70388607  0.65663000  1
  H  H22  1  0.57570639  0.84745959  0.60817531  1
  H  H23  1  0.41546723  0.81511752  0.34863546  1
  H  H24  1  0.42067564  0.68176824  0.39212513  1
  H  H25  1  0.60587007  0.75273825  0.38347359  1
  H  H26  1  0.87213922  0.72969136  0.76885308  1
  H  H27  1  0.07274236  0.80763925  0.79111292  1
  H  H28  1  0.07715567  0.66335386  0.82259368  1
  H  H29  1  0.93780968  0.81228898  0.01772776  1
  H  H30  1  0.92760496  0.67649349  0.04264226  1
  H  H31  1  0.12222704  0.74355558  0.06782277  1
  Hf  Hf32  1  0.47805447  0.99829359  0.01997761  1
  Hf  Hf33  1  0.01736097  0.49897185  0.42364026  1
  Pt  Pt34  1  0.88497293  0.13048575  0.65906839  1
  Pt  Pt35  1  0.72477502  0.49320931  0.26489822  1
  I  I36  1  0.49182959  0.22360379  0.99753159  1
  I  I37  1  0.21065555  0.97662270  0.19448879  1
  I  I38  1  0.72839831  0.99149632  0.29640237  1
  I  I39  1  0.00362308  0.26143532  0.45719385  1
  I  I40  1  0.25874392  0.00384230  0.72195048  1
  I  I41  1  0.77715053  0.98780878  0.84899901  1
  I  I42  1  0.48945528  0.76824807  0.01519413  1
  I  I43  1  0.69348383  0.49348162  0.55838054  1
  I  I44  1  0.24759171  0.49896342  0.21469675  1
  I  I45  1  0.00680013  0.72546600  0.41628869  1
  I  I46  1  0.25307112  0.49570238  0.71238343  1
  I  I47  1  0.74387195  0.50399884  0.97471193  1
