# generated using pymatgen
data_TlH12IrC2(I3N)2
_symmetry_space_group_name_H-M   'P 1'
_cell_length_a   8.39266036
_cell_length_b   12.01402819
_cell_length_c   8.24695633
_cell_angle_alpha   86.16732999
_cell_angle_beta   90.00275293
_cell_angle_gamma   90.03813191
_symmetry_Int_Tables_number   1
_chemical_formula_structural   TlH12IrC2(I3N)2
_chemical_formula_sum   'Tl2 H24 Ir2 C4 I12 N4'
_cell_volume   829.67788411
_cell_formula_units_Z   2
loop_
 _symmetry_equiv_pos_site_id
 _symmetry_equiv_pos_as_xyz
  1  'x, y, z'
loop_
 _atom_site_type_symbol
 _atom_site_label
 _atom_site_symmetry_multiplicity
 _atom_site_fract_x
 _atom_site_fract_y
 _atom_site_fract_z
 _atom_site_occupancy
  C  C0  1  0.39628993  0.24967885  0.41332802  1
  C  C1  1  0.89739354  0.25042497  0.08770074  1
  C  C2  1  0.60370641  0.75032483  0.58668636  1
  C  C3  1  0.10261322  0.74957704  0.91230986  1
  N  N4  1  0.53805682  0.24777591  0.52053410  1
  N  N5  1  0.03853377  0.25226306  0.97965867  1
  N  N6  1  0.46193833  0.75222940  0.47948178  1
  N  N7  1  0.96147295  0.74773561  0.02035204  1
  H  H8  1  0.43613931  0.25256443  0.28669783  1
  H  H9  1  0.32703246  0.17373848  0.44139909  1
  H  H10  1  0.32531484  0.32334968  0.43531598  1
  H  H11  1  0.60835176  0.17924046  0.49973264  1
  H  H12  1  0.60711484  0.31916949  0.49623570  1
  H  H13  1  0.50738991  0.24303456  0.64387704  1
  H  H14  1  0.93801909  0.24758078  0.21407306  1
  H  H15  1  0.82607499  0.17675285  0.06623486  1
  H  H16  1  0.82819646  0.32638664  0.06004733  1
  H  H17  1  0.10751399  0.18085995  0.00362571  1
  H  H18  1  0.10913630  0.32079205  0.99999157  1
  H  H19  1  0.00719346  0.25697032  0.85649096  1
  H  H20  1  0.56385869  0.74743936  0.71331711  1
  H  H21  1  0.67467966  0.67665287  0.56469709  1
  H  H22  1  0.67296526  0.82626408  0.55861476  1
  H  H23  1  0.39164452  0.82076475  0.50028484  1
  H  H24  1  0.39287976  0.68083559  0.50377921  1
  H  H25  1  0.49260475  0.75697136  0.35613870  1
  H  H26  1  0.06198780  0.75242294  0.78593741  1
  H  H27  1  0.17393063  0.82324891  0.93377894  1
  H  H28  1  0.17181123  0.67361530  0.93996054  1
  H  H29  1  0.89248988  0.81913735  0.99638667  1
  H  H30  1  0.89087327  0.67920503  0.00001875  1
  H  H31  1  0.99281339  0.74302820  0.14351990  1
  Ir  Ir32  1  0.50000325  0.00000365  0.00000927  1
  Ir  Ir33  1  0.99999666  0.50000162  0.50000179  1
  Tl  Tl34  1  0.00000257  0.00000181  0.50000951  1
  Tl  Tl35  1  0.49999735  0.50000790  0.99999628  1
  I  I36  1  0.47343948  0.22402852  0.94491482  1
  I  I37  1  0.21610538  0.99957109  0.15641117  1
  I  I38  1  0.65163522  0.01521791  0.28888648  1
  I  I39  1  0.97279341  0.27600766  0.55555850  1
  I  I40  1  0.34837006  0.98478939  0.71113290  1
  I  I41  1  0.78390111  0.00043304  0.84360715  1
  I  I42  1  0.52656840  0.77597963  0.05510442  1
  I  I43  1  0.71630644  0.50026099  0.34320847  1
  I  I44  1  0.15199970  0.48488308  0.21128975  1
  I  I45  1  0.02719964  0.72399571  0.44444963  1
  I  I46  1  0.28368705  0.49974178  0.65679376  1
  I  I47  1  0.84799680  0.51511942  0.78871544  1
