# generated using pymatgen
data_H12IrAuC2(I3N)2
_symmetry_space_group_name_H-M   'P 1'
_cell_length_a   8.72569961
_cell_length_b   10.40561368
_cell_length_c   8.65364376
_cell_angle_alpha   87.39696017
_cell_angle_beta   89.04590714
_cell_angle_gamma   90.92255513
_symmetry_Int_Tables_number   1
_chemical_formula_structural   H12IrAuC2(I3N)2
_chemical_formula_sum   'H24 Ir2 Au2 C4 I12 N4'
_cell_volume   784.68715168
_cell_formula_units_Z   2
loop_
 _symmetry_equiv_pos_site_id
 _symmetry_equiv_pos_as_xyz
  1  'x, y, z'
loop_
 _atom_site_type_symbol
 _atom_site_label
 _atom_site_symmetry_multiplicity
 _atom_site_fract_x
 _atom_site_fract_y
 _atom_site_fract_z
 _atom_site_occupancy
  C  C0  1  0.46968080  0.24468998  0.41955620  1
  C  C1  1  0.95784750  0.24950417  0.07294484  1
  C  C2  1  0.54115625  0.75488381  0.56194271  1
  C  C3  1  0.02747003  0.73976591  0.92733275  1
  N  N4  1  0.53009133  0.26494481  0.57570525  1
  N  N5  1  0.07818508  0.23475234  0.95207250  1
  N  N6  1  0.42782626  0.73989647  0.43841150  1
  N  N7  1  0.96203685  0.75092758  0.08506690  1
  H  H8  1  0.56629868  0.23963615  0.33807446  1
  H  H9  1  0.40239752  0.15492817  0.42284877  1
  H  H10  1  0.39792866  0.32617550  0.38518105  1
  H  H11  1  0.59668144  0.18833975  0.61442632  1
  H  H12  1  0.59955793  0.34693151  0.57615169  1
  H  H13  1  0.44365661  0.27509698  0.65787667  1
  H  H14  1  0.01020217  0.23453953  0.18615460  1
  H  H15  1  0.86681697  0.17785999  0.05750139  1
  H  H16  1  0.91129878  0.34630916  0.06249495  1
  H  H17  1  0.13469649  0.14812463  0.97014755  1
  H  H18  1  0.16181654  0.30669760  0.95284119  1
  H  H19  1  0.03418541  0.23574599  0.84134202  1
  H  H20  1  0.48009721  0.74506670  0.67318690  1
  H  H21  1  0.62738637  0.68023956  0.55180349  1
  H  H22  1  0.59616346  0.84991621  0.54898785  1
  H  H23  1  0.34645529  0.81147037  0.43705849  1
  H  H24  1  0.36804368  0.65272099  0.45409396  1
  H  H25  1  0.47964252  0.74201901  0.32943310  1
  H  H26  1  0.93373153  0.73549233  0.84520294  1
  H  H27  1  0.10019453  0.82444525  0.89785259  1
  H  H28  1  0.09501227  0.65214104  0.92439588  1
  H  H29  1  0.89248586  0.83068303  0.09285698  1
  H  H30  1  0.89541473  0.67074057  0.12201131  1
  H  H31  1  0.04653186  0.76027604  0.16700762  1
  Ir  Ir32  1  0.49564698  0.00115244  0.99380688  1
  Ir  Ir33  1  0.00809861  0.49697347  0.49802702  1
  Au  Au34  1  0.81693172  0.07698927  0.47312850  1
  Au  Au35  1  0.65702317  0.60440539  0.88766982  1
  I  I36  1  0.50252812  0.25995868  0.99491549  1
  I  I37  1  0.24808850  0.99476369  0.19010463  1
  I  I38  1  0.69018811  0.95817649  0.23751792  1
  I  I39  1  0.04968124  0.23817580  0.51608783  1
  I  I40  1  0.31268726  0.00736754  0.74760744  1
  I  I41  1  0.74986058  0.00106408  0.80674958  1
  I  I42  1  0.45415693  0.74317332  0.01736386  1
  I  I43  1  0.75898414  0.49807731  0.31390088  1
  I  I44  1  0.19292696  0.50754071  0.24559187  1
  I  I45  1  0.00108115  0.75591567  0.50163040  1
  I  I46  1  0.25580455  0.49837072  0.68793747  1
  I  I47  1  0.82534512  0.44301256  0.74629259  1
