# generated using pymatgen
data_HgH12PtC2(I3N)2
_symmetry_space_group_name_H-M   'P 1'
_cell_length_a   8.62636814
_cell_length_b   11.72603809
_cell_length_c   8.25985070
_cell_angle_alpha   90.64503576
_cell_angle_beta   89.99041279
_cell_angle_gamma   89.98517882
_symmetry_Int_Tables_number   1
_chemical_formula_structural   HgH12PtC2(I3N)2
_chemical_formula_sum   'Hg2 H24 Pt2 C4 I12 N4'
_cell_volume   835.45669313
_cell_formula_units_Z   2
loop_
 _symmetry_equiv_pos_site_id
 _symmetry_equiv_pos_as_xyz
  1  'x, y, z'
loop_
 _atom_site_type_symbol
 _atom_site_label
 _atom_site_symmetry_multiplicity
 _atom_site_fract_x
 _atom_site_fract_y
 _atom_site_fract_z
 _atom_site_occupancy
  C  C0  1  0.44059382  0.24691650  0.43933928  1
  C  C1  1  0.94077617  0.25305034  0.05964385  1
  C  C2  1  0.55940479  0.75308594  0.56067089  1
  C  C3  1  0.05922786  0.74695376  0.94036908  1
  N  N4  1  0.58335302  0.24635305  0.54004639  1
  N  N5  1  0.08360890  0.25366032  0.95899482  1
  N  N6  1  0.41664447  0.75365396  0.45996548  1
  N  N7  1  0.91639266  0.74634262  0.04101428  1
  H  H8  1  0.47491310  0.24967539  0.31189434  1
  H  H9  1  0.37559445  0.16869733  0.46227995  1
  H  H10  1  0.37168603  0.32217573  0.47169137  1
  H  H11  1  0.64835682  0.17379166  0.51583053  1
  H  H12  1  0.65238222  0.31660694  0.51351389  1
  H  H13  1  0.55853839  0.24867379  0.66360314  1
  H  H14  1  0.97499650  0.25027321  0.18710494  1
  H  H15  1  0.87198087  0.17778106  0.02720168  1
  H  H16  1  0.87570598  0.33125515  0.03666545  1
  H  H17  1  0.15275386  0.18347258  0.98561852  1
  H  H18  1  0.14846727  0.32627562  0.98308906  1
  H  H19  1  0.05885593  0.25124044  0.83542723  1
  H  H20  1  0.52508680  0.75032456  0.68811611  1
  H  H21  1  0.62831024  0.67782643  0.52831439  1
  H  H22  1  0.62440609  0.83130473  0.53773298  1
  H  H23  1  0.35164409  0.82621661  0.48418465  1
  H  H24  1  0.34761278  0.68340124  0.48649591  1
  H  H25  1  0.44145813  0.75133476  0.33640836  1
  H  H26  1  0.02501043  0.74972798  0.81290694  1
  H  H27  1  0.12801952  0.82222500  0.97281048  1
  H  H28  1  0.12430040  0.66875068  0.96335196  1
  H  H29  1  0.84724736  0.81652990  0.01438865  1
  H  H30  1  0.85153604  0.67372681  0.01691744  1
  H  H31  1  0.94114246  0.74876247  0.16458253  1
  Pt  Pt32  1  0.49999999  0.00000016  0.00000567  1
  Pt  Pt33  1  0.00000311  0.50000094  0.50000980  1
  Hg  Hg34  1  0.99999842  0.00000088  0.50000411  1
  Hg  Hg35  1  0.50000254  0.49999958  0.00001441  1
  I  I36  1  0.50435292  0.26894043  0.97017248  1
  I  I37  1  0.24197402  0.01201365  0.17590107  1
  I  I38  1  0.67237493  0.00235638  0.26731106  1
  I  I39  1  0.00414216  0.23109604  0.52920216  1
  I  I40  1  0.32762426  0.99764568  0.73270098  1
  I  I41  1  0.75802613  0.98798776  0.82411068  1
  I  I42  1  0.49565094  0.73105970  0.02984274  1
  I  I43  1  0.74200429  0.48814795  0.32412455  1
  I  I44  1  0.17234165  0.49750080  0.23263416  1
  I  I45  1  0.99585657  0.76890555  0.47080972  1
  I  I46  1  0.25800162  0.51185414  0.67589454  1
  I  I47  1  0.82766274  0.50250211  0.76738392  1
