# generated using pymatgen
data_BiH12AuC2(I3N)2
_symmetry_space_group_name_H-M   'P 1'
_cell_length_a   8.33163112
_cell_length_b   12.31355265
_cell_length_c   8.24966166
_cell_angle_alpha   90.70140837
_cell_angle_beta   90.03001985
_cell_angle_gamma   89.98922725
_symmetry_Int_Tables_number   1
_chemical_formula_structural   BiH12AuC2(I3N)2
_chemical_formula_sum   'Bi2 H24 Au2 C4 I12 N4'
_cell_volume   846.28556295
_cell_formula_units_Z   2
loop_
 _symmetry_equiv_pos_site_id
 _symmetry_equiv_pos_as_xyz
  1  'x, y, z'
loop_
 _atom_site_type_symbol
 _atom_site_label
 _atom_site_symmetry_multiplicity
 _atom_site_fract_x
 _atom_site_fract_y
 _atom_site_fract_z
 _atom_site_occupancy
  C  C0  1  0.39529417  0.25012366  0.41412550  1
  C  C1  1  0.89652822  0.25008205  0.08698231  1
  C  C2  1  0.60470351  0.74987869  0.58588815  1
  C  C3  1  0.10347818  0.74991941  0.91303223  1
  N  N4  1  0.53807756  0.25045923  0.52142080  1
  N  N5  1  0.03855014  0.24958706  0.97881905  1
  N  N6  1  0.46192002  0.74954559  0.47859290  1
  N  N7  1  0.96145843  0.75041071  0.02119820  1
  H  H8  1  0.43579807  0.24918913  0.28788015  1
  H  H9  1  0.32486004  0.17724573  0.43810572  1
  H  H10  1  0.32418055  0.32305797  0.43920090  1
  H  H11  1  0.60791092  0.18201565  0.49827228  1
  H  H12  1  0.60864008  0.31835414  0.49943813  1
  H  H13  1  0.50727907  0.25093117  0.64429072  1
  H  H14  1  0.93789319  0.25106209  0.21294735  1
  H  H15  1  0.82516093  0.17717663  0.06243081  1
  H  H16  1  0.82598235  0.32300811  0.06335149  1
  H  H17  1  0.10918684  0.18163364  0.00053002  1
  H  H18  1  0.10862119  0.31798983  0.00156774  1
  H  H19  1  0.00702001  0.24908935  0.85616349  1
  H  H20  1  0.56420131  0.75081500  0.71213324  1
  H  H21  1  0.67581649  0.67694515  0.56081244  1
  H  H22  1  0.67513893  0.82275747  0.56190618  1
  H  H23  1  0.39208664  0.81798728  0.50174287  1
  H  H24  1  0.39135640  0.68164850  0.50057692  1
  H  H25  1  0.49271693  0.74907226  0.35572407  1
  H  H26  1  0.06211145  0.74894159  0.78706801  1
  H  H27  1  0.17484464  0.82282520  0.93758646  1
  H  H28  1  0.17402589  0.67699365  0.93665872  1
  H  H29  1  0.89081811  0.81836251  0.99949048  1
  H  H30  1  0.89138967  0.68200647  0.99844840  1
  H  H31  1  0.99299022  0.75090738  0.14385299  1
  Au  Au32  1  0.50000134  0.00001117  0.00000686  1
  Au  Au33  1  0.99998507  0.50000631  0.49998319  1
  Bi  Bi34  1  0.00000044  0.00000415  0.50000955  1
  Bi  Bi35  1  0.49999944  0.50000611  0.99999157  1
  I  I36  1  0.47536886  0.25163203  0.94674357  1
  I  I37  1  0.19373977  0.01233876  0.17624984  1
  I  I38  1  0.67760539  0.00953500  0.31004864  1
  I  I39  1  0.97466888  0.24832697  0.55389089  1
  I  I40  1  0.32239861  0.99047021  0.68996639  1
  I  I41  1  0.80626675  0.98766302  0.82376911  1
  I  I42  1  0.52463724  0.74837606  0.05326879  1
  I  I43  1  0.69381077  0.48754954  0.32387275  1
  I  I44  1  0.17780791  0.49059912  0.18985905  1
  I  I45  1  0.02533002  0.75167929  0.44612496  1
  I  I46  1  0.30616839  0.51245293  0.67613076  1
  I  I47  1  0.82219471  0.50940533  0.81014194  1
