# generated using pymatgen
data_HgH12PbC2(I3N)2
_symmetry_space_group_name_H-M   'P 1'
_cell_length_a   8.47481875
_cell_length_b   12.37847367
_cell_length_c   8.37997087
_cell_angle_alpha   89.74802312
_cell_angle_beta   90.01107161
_cell_angle_gamma   90.00050304
_symmetry_Int_Tables_number   1
_chemical_formula_structural   HgH12PbC2(I3N)2
_chemical_formula_sum   'Hg2 H24 Pb2 C4 I12 N4'
_cell_volume   879.09501436
_cell_formula_units_Z   2
loop_
 _symmetry_equiv_pos_site_id
 _symmetry_equiv_pos_as_xyz
  1  'x, y, z'
loop_
 _atom_site_type_symbol
 _atom_site_label
 _atom_site_symmetry_multiplicity
 _atom_site_fract_x
 _atom_site_fract_y
 _atom_site_fract_z
 _atom_site_occupancy
  C  C0  1  0.39473790  0.25020611  0.41450925  1
  C  C1  1  0.89604103  0.25001641  0.08673358  1
  C  C2  1  0.60525940  0.74979697  0.58550593  1
  C  C3  1  0.10396659  0.74998401  0.91328112  1
  N  N4  1  0.53490389  0.24999065  0.52054150  1
  N  N5  1  0.03547893  0.25009539  0.97979103  1
  N  N6  1  0.46509272  0.75001249  0.47947462  1
  N  N7  1  0.96453017  0.74990163  0.02022566  1
  H  H8  1  0.43488158  0.25007866  0.29028286  1
  H  H9  1  0.32527332  0.17752689  0.43871415  1
  H  H10  1  0.32487321  0.32268591  0.43826718  1
  H  H11  1  0.60369006  0.18209082  0.49783081  1
  H  H12  1  0.60414648  0.31793818  0.49834868  1
  H  H13  1  0.50462730  0.24938257  0.64146922  1
  H  H14  1  0.93706311  0.25020867  0.21068218  1
  H  H15  1  0.82589092  0.17758505  0.06356973  1
  H  H16  1  0.82654187  0.32276467  0.06293867  1
  H  H17  1  0.10473606  0.18207627  0.00164604  1
  H  H18  1  0.10452647  0.31792999  0.00202280  1
  H  H19  1  0.00445687  0.25065947  0.85905823  1
  H  H20  1  0.56511740  0.74992561  0.70973265  1
  H  H21  1  0.67512345  0.67731641  0.56174819  1
  H  H22  1  0.67472458  0.82247548  0.56129929  1
  H  H23  1  0.39630660  0.81791185  0.50218675  1
  H  H24  1  0.39584998  0.68206419  0.50166865  1
  H  H25  1  0.49536774  0.75062056  0.35854728  1
  H  H26  1  0.06294301  0.74979408  0.78933290  1
  H  H27  1  0.17411675  0.82241496  0.93644797  1
  H  H28  1  0.17346629  0.67723535  0.93707144  1
  H  H29  1  0.89527018  0.81791961  0.99837337  1
  H  H30  1  0.89548489  0.68206609  0.99799304  1
  H  H31  1  0.99555370  0.74933700  0.14095808  1
  Hg  Hg32  1  0.49999939  0.00001346  0.00000777  1
  Hg  Hg33  1  0.99998145  0.50000382  0.49998233  1
  Pb  Pb34  1  0.00000067  0.00000406  0.50001326  1
  Pb  Pb35  1  0.49999829  0.50001372  0.99998301  1
  I  I36  1  0.47144888  0.24644964  0.94020479  1
  I  I37  1  0.18624646  0.01251600  0.16815831  1
  I  I38  1  0.67024800  0.01550082  0.31748286  1
  I  I39  1  0.97081925  0.25355601  0.56041166  1
  I  I40  1  0.32976260  0.98450689  0.68252933  1
  I  I41  1  0.81376008  0.98748318  0.83186213  1
  I  I42  1  0.52855696  0.75356495  0.05981109  1
  I  I43  1  0.68624085  0.48727663  0.33178231  1
  I  I44  1  0.17038617  0.48470271  0.18254760  1
  I  I45  1  0.02917871  0.74644916  0.43960447  1
  I  I46  1  0.31373655  0.51272465  0.66821049  1
  I  I47  1  0.82961699  0.51530057  0.81745233  1
