# generated using pymatgen
data_TlBiH12C2(I3N)2
_symmetry_space_group_name_H-M   'P 1'
_cell_length_a   8.74304425
_cell_length_b   12.59906588
_cell_length_c   8.55467717
_cell_angle_alpha   91.84548197
_cell_angle_beta   90.00917496
_cell_angle_gamma   89.97274904
_symmetry_Int_Tables_number   1
_chemical_formula_structural   TlBiH12C2(I3N)2
_chemical_formula_sum   'Tl2 Bi2 H24 C4 I12 N4'
_cell_volume   941.84464485
_cell_formula_units_Z   2
loop_
 _symmetry_equiv_pos_site_id
 _symmetry_equiv_pos_as_xyz
  1  'x, y, z'
loop_
 _atom_site_type_symbol
 _atom_site_label
 _atom_site_symmetry_multiplicity
 _atom_site_fract_x
 _atom_site_fract_y
 _atom_site_fract_z
 _atom_site_occupancy
  C  C0  1  0.39671333  0.24993128  0.41601216  1
  C  C1  1  0.89796733  0.25034080  0.08521400  1
  C  C2  1  0.60328372  0.75007132  0.58400131  1
  C  C3  1  0.10204028  0.74965993  0.91480052  1
  N  N4  1  0.53362700  0.25063616  0.51915085  1
  N  N5  1  0.03419880  0.24942540  0.98117710  1
  N  N6  1  0.46636970  0.74936783  0.48086378  1
  N  N7  1  0.96581074  0.75057209  0.01884045  1
  H  H8  1  0.43500829  0.24893283  0.29400716  1
  H  H9  1  0.32910543  0.17889717  0.43811961  1
  H  H10  1  0.32966394  0.32178608  0.44160410  1
  H  H11  1  0.60013965  0.18313675  0.49607268  1
  H  H12  1  0.60045917  0.31690932  0.49749502  1
  H  H13  1  0.50485153  0.25256193  0.63772857  1
  H  H14  1  0.93709289  0.25137205  0.20694990  1
  H  H15  1  0.83070446  0.17853582  0.06019507  1
  H  H16  1  0.83025967  0.32143836  0.06348801  1
  H  H17  1  0.10110208  0.18307926  0.00248999  1
  H  H18  1  0.10089897  0.31685916  0.00380358  1
  H  H19  1  0.00471085  0.24749130  0.86278916  1
  H  H20  1  0.56498983  0.75107105  0.70600751  1
  H  H21  1  0.67033224  0.67821571  0.55841030  1
  H  H22  1  0.67089383  0.82110505  0.56189353  1
  H  H23  1  0.39985823  0.81686653  0.50394354  1
  H  H24  1  0.39953760  0.68309418  0.50252011  1
  H  H25  1  0.49514460  0.74744248  0.36228674  1
  H  H26  1  0.06291213  0.74863104  0.79306621  1
  H  H27  1  0.16930292  0.82146437  0.93982228  1
  H  H28  1  0.16974796  0.67856215  0.93652180  1
  H  H29  1  0.89890414  0.81691721  0.99753070  1
  H  H30  1  0.89911218  0.68313732  0.99621287  1
  H  H31  1  0.99530034  0.75250526  0.13722816  1
  Tl  Tl32  1  0.50000233  0.00001161  0.00000864  1
  Tl  Tl33  1  0.99998623  0.50000020  0.49998774  1
  Bi  Bi34  1  0.00000210  0.00000173  0.50001067  1
  Bi  Bi35  1  0.49999662  0.50001027  0.99999215  1
  I  I36  1  0.47169832  0.25875375  0.93538369  1
  I  I37  1  0.16235379  0.02179619  0.18279453  1
  I  I38  1  0.68607670  0.01157376  0.34010394  1
  I  I39  1  0.97114681  0.24123041  0.56518748  1
  I  I40  1  0.31393196  0.98843163  0.65991226  1
  I  I41  1  0.83765110  0.97820153  0.81722389  1
  I  I42  1  0.52830598  0.74126459  0.06462474  1
  I  I43  1  0.66223309  0.47803815  0.31725596  1
  I  I44  1  0.18611023  0.48865955  0.15985235  1
  I  I45  1  0.02885415  0.75877305  0.43483399  1
  I  I46  1  0.33774340  0.52196633  0.68273462  1
  I  I47  1  0.81388706  0.51134832  0.84014315  1
