# generated using pymatgen
data_BeH6CBr3N
_symmetry_space_group_name_H-M   'P 1'
_cell_length_a   6.40070016
_cell_length_b   12.01046611
_cell_length_c   8.62286463
_cell_angle_alpha   90.00618755
_cell_angle_beta   89.94331531
_cell_angle_gamma   89.99139166
_symmetry_Int_Tables_number   1
_chemical_formula_structural   BeH6CBr3N
_chemical_formula_sum   'Be4 H24 C4 Br12 N4'
_cell_volume   662.88576612
_cell_formula_units_Z   4
loop_
 _symmetry_equiv_pos_site_id
 _symmetry_equiv_pos_as_xyz
  1  'x, y, z'
loop_
 _atom_site_type_symbol
 _atom_site_label
 _atom_site_symmetry_multiplicity
 _atom_site_fract_x
 _atom_site_fract_y
 _atom_site_fract_z
 _atom_site_occupancy
  C  C0  1  0.20614597  0.26212958  0.33472108  1
  C  C1  1  0.70636846  0.26197676  0.16414751  1
  C  C2  1  0.79386350  0.76224782  0.66525821  1
  C  C3  1  0.29361957  0.76213163  0.83585131  1
  N  N4  1  0.30910525  0.26105009  0.48804910  1
  N  N5  1  0.80769059  0.26105855  0.01008937  1
  N  N6  1  0.69080189  0.76109980  0.51196784  1
  N  N7  1  0.19250775  0.76091584  0.98998128  1
  H  H8  1  0.32278183  0.26052083  0.24248474  1
  H  H9  1  0.10703418  0.18819655  0.32618394  1
  H  H10  1  0.11417560  0.33859212  0.32517170  1
  H  H11  1  0.38842455  0.18682068  0.50887316  1
  H  H12  1  0.41281064  0.32702237  0.49920264  1
  H  H13  1  0.19823455  0.26743794  0.57574968  1
  H  H14  1  0.82402537  0.26087033  0.25549054  1
  H  H15  1  0.60820868  0.18772797  0.17357625  1
  H  H16  1  0.61365557  0.33815551  0.17426202  1
  H  H17  1  0.88740494  0.18698372  0.98883364  1
  H  H18  1  0.91075968  0.32723656  0.99820903  1
  H  H19  1  0.69580403  0.26715272  0.92320821  1
  H  H20  1  0.67728879  0.76072464  0.75753954  1
  H  H21  1  0.89297602  0.68830416  0.67382604  1
  H  H22  1  0.88584693  0.83870140  0.67470598  1
  H  H23  1  0.58707584  0.82707026  0.50082137  1
  H  H24  1  0.61147824  0.68686441  0.49121491  1
  H  H25  1  0.80160109  0.76743830  0.42421774  1
  H  H26  1  0.17583382  0.76102871  0.74459521  1
  H  H27  1  0.38603018  0.83840710  0.82587369  1
  H  H28  1  0.39203610  0.68798338  0.82613492  1
  H  H29  1  0.08916031  0.82694467  0.00211720  1
  H  H30  1  0.11316729  0.68671599  0.01112511  1
  H  H31  1  0.30450387  0.76704142  0.07679097  1
  Be  Be32  1  0.71589677  0.92501911  0.13221638  1
  Be  Be33  1  0.78440156  0.42498547  0.63116812  1
  Be  Be34  1  0.21551513  0.92495685  0.36881600  1
  Be  Be35  1  0.28407097  0.42500325  0.86777441  1
  Br  Br36  1  0.30281442  0.24704359  0.87709480  1
  Br  Br37  1  0.38742287  0.99321037  0.15660178  1
  Br  Br38  1  0.88713836  0.99316510  0.34441409  1
  Br  Br39  1  0.80318494  0.24706330  0.62176033  1
  Br  Br40  1  0.36002686  0.99320809  0.57219937  1
  Br  Br41  1  0.86097986  0.99308998  0.92875680  1
  Br  Br42  1  0.69731288  0.74704870  0.12286901  1
  Br  Br43  1  0.63991187  0.49320679  0.42777448  1
  Br  Br44  1  0.13893550  0.49302909  0.07130547  1
  Br  Br45  1  0.19679966  0.74703813  0.37825386  1
  Br  Br46  1  0.11275672  0.49318342  0.65563747  1
  Br  Br47  1  0.61243431  0.49327524  0.84338028  1
