# generated using pymatgen
data_BH6CBr3N
_symmetry_space_group_name_H-M   'P 1'
_cell_length_a   7.21244197
_cell_length_b   10.30222839
_cell_length_c   9.61348963
_cell_angle_alpha   83.00643759
_cell_angle_beta   92.06005805
_cell_angle_gamma   92.94269335
_symmetry_Int_Tables_number   1
_chemical_formula_structural   BH6CBr3N
_chemical_formula_sum   'B4 H24 C4 Br12 N4'
_cell_volume   707.75547855
_cell_formula_units_Z   4
loop_
 _symmetry_equiv_pos_site_id
 _symmetry_equiv_pos_as_xyz
  1  'x, y, z'
loop_
 _atom_site_type_symbol
 _atom_site_label
 _atom_site_symmetry_multiplicity
 _atom_site_fract_x
 _atom_site_fract_y
 _atom_site_fract_z
 _atom_site_occupancy
  C  C0  1  0.43561934  0.16915258  0.42837746  1
  C  C1  1  0.06356525  0.32924773  0.00699785  1
  C  C2  1  0.44542952  0.74894482  0.42026351  1
  C  C3  1  0.01315593  0.71252201  0.05263189  1
  N  N4  1  0.46559853  0.23237166  0.55851158  1
  N  N5  1  0.21650888  0.34654679  0.90512596  1
  N  N6  1  0.39344993  0.71866621  0.27732686  1
  N  N7  1  0.02890984  0.74695645  0.19711072  1
  H  H8  1  0.49715962  0.23269456  0.34057180  1
  H  H9  1  0.50201077  0.07521833  0.44272416  1
  H  H10  1  0.28611001  0.15512303  0.40821925  1
  H  H11  1  0.60579672  0.24778046  0.58383333  1
  H  H12  1  0.40736508  0.32338852  0.54812690  1
  H  H13  1  0.40525018  0.17477462  0.64354764  1
  H  H14  1  0.12149696  0.33902336  0.11229186  1
  H  H15  1  0.99591553  0.23165082  0.00550185  1
  H  H16  1  0.96243407  0.40429397  0.97665255  1
  H  H17  1  0.30051164  0.26751134  0.92384644  1
  H  H18  1  0.24744220  0.57055730  0.89996747  1
  H  H19  1  0.15669979  0.34146122  0.80604127  1
  H  H20  1  0.36006111  0.68693014  0.49641681  1
  H  H21  1  0.59198216  0.73007264  0.44423849  1
  H  H22  1  0.42128645  0.85215743  0.42650356  1
  H  H23  1  0.09616482  0.94647324  0.50172826  1
  H  H24  1  0.42026795  0.62350416  0.26441474  1
  H  H25  1  0.46650551  0.77733983  0.20088022  1
  H  H26  1  0.87575029  0.72947606  0.00242408  1
  H  H27  1  0.11777966  0.77057453  0.98830307  1
  H  H28  1  0.04178283  0.60892509  0.05412874  1
  H  H29  1  0.99572519  0.84228347  0.19839234  1
  H  H30  1  0.93663699  0.68950244  0.25935864  1
  H  H31  1  0.24204952  0.73067894  0.25090848  1
  B  B32  1  0.43515975  0.00391918  0.94993778  1
  B  B33  1  0.96526661  0.45481971  0.50073080  1
  B  B34  1  0.93540095  0.96762321  0.48426065  1
  B  B35  1  0.34076219  0.47768367  0.90355714  1
  Br  Br36  1  0.63758439  0.14419828  0.91054928  1
  Br  Br37  1  0.31426542  0.03088414  0.13198626  1
  Br  Br38  1  0.84999706  0.04606704  0.30411701  1
  Br  Br39  1  0.93632911  0.27885320  0.62582165  1
  Br  Br40  1  0.23308691  0.02142877  0.79362483  1
  Br  Br41  1  0.77124221  0.92059714  0.63375466  1
  Br  Br42  1  0.53524055  0.82405239  0.95769350  1
  Br  Br43  1  0.73297661  0.47858360  0.37784224  1
  Br  Br44  1  0.17765047  0.43770242  0.37166811  1
  Br  Br45  1  0.00827500  0.60246297  0.61619060  1
  Br  Br46  1  0.50323224  0.49659004  0.73317767  1
  Br  Br47  1  0.50713198  0.45880876  0.08001664  1
