# generated using pymatgen
data_H6C2Br3N
_symmetry_space_group_name_H-M   'P 1'
_cell_length_a   7.04964322
_cell_length_b   10.99832100
_cell_length_c   8.29669068
_cell_angle_alpha   76.97481015
_cell_angle_beta   89.99566658
_cell_angle_gamma   89.99763531
_symmetry_Int_Tables_number   1
_chemical_formula_structural   H6C2Br3N
_chemical_formula_sum   'H24 C8 Br12 N4'
_cell_volume   626.72675422
_cell_formula_units_Z   4
loop_
 _symmetry_equiv_pos_site_id
 _symmetry_equiv_pos_as_xyz
  1  'x, y, z'
loop_
 _atom_site_type_symbol
 _atom_site_label
 _atom_site_symmetry_multiplicity
 _atom_site_fract_x
 _atom_site_fract_y
 _atom_site_fract_z
 _atom_site_occupancy
  C  C0  1  0.50787787  0.22340761  0.42578935  1
  C  C1  1  0.00884453  0.28427544  0.08139462  1
  C  C2  1  0.49109175  0.78422333  0.58140734  1
  C  C3  1  0.99215537  0.72329804  0.92597789  1
  N  N4  1  0.50014711  0.28524122  0.56706352  1
  N  N5  1  0.00153441  0.21782299  0.94453481  1
  N  N6  1  0.49833494  0.71789066  0.44442242  1
  N  N7  1  0.00005591  0.78537863  0.06700966  1
  H  H8  1  0.65333098  0.19292946  0.41244898  1
  H  H9  1  0.41196742  0.14327447  0.45087637  1
  H  H10  1  0.46371007  0.29060025  0.31415582  1
  H  H11  1  0.53561147  0.22453409  0.67773810  1
  H  H12  1  0.59256514  0.36034785  0.55192773  1
  H  H13  1  0.36510077  0.31857139  0.58180677  1
  H  H14  1  0.15331382  0.31764089  0.09094228  1
  H  H15  1  0.96839899  0.21911986  0.19597249  1
  H  H16  1  0.91010561  0.36273691  0.05372692  1
  H  H17  1  0.10083681  0.14656379  0.95948984  1
  H  H18  1  0.02768896  0.27732573  0.83065404  1
  H  H19  1  0.86932749  0.17818324  0.93703800  1
  H  H20  1  0.34640419  0.81701027  0.59162399  1
  H  H21  1  0.53254213  0.71916685  0.69575344  1
  H  H22  1  0.58910299  0.86306818  0.55338102  1
  H  H23  1  0.47149335  0.77739161  0.33068232  1
  H  H24  1  0.39946314  0.64636827  0.45962187  1
  H  H25  1  0.63073216  0.67862524  0.43644980  1
  H  H26  1  0.84685528  0.69229107  0.91332064  1
  H  H27  1  0.03540665  0.79051353  0.81404476  1
  H  H28  1  0.08870177  0.64349216  0.95084855  1
  H  H29  1  0.90719228  0.86024630  0.05202579  1
  H  H30  1  0.96533554  0.72472541  0.17793463  1
  H  H31  1  0.13497306  0.81911431  0.08119041  1
  C  C32  1  0.49752948  0.97366873  0.93830347  1
  C  C33  1  0.00246782  0.47368471  0.43837461  1
  C  C34  1  0.99282607  0.95045596  0.41556381  1
  C  C35  1  0.50708893  0.45043665  0.91554373  1
  Br  Br36  1  0.51024937  0.25622858  0.98295448  1
  Br  Br37  1  0.22788096  0.98909973  0.26069471  1
  Br  Br38  1  0.76642957  0.99040176  0.25279864  1
  Br  Br39  1  0.00929656  0.27930223  0.51659367  1
  Br  Br40  1  0.26734720  0.01161833  0.77896240  1
  Br  Br41  1  0.72968822  0.00657974  0.77863077  1
  Br  Br42  1  0.49081059  0.77929601  0.01650775  1
  Br  Br43  1  0.77027694  0.50655942  0.27878554  1
  Br  Br44  1  0.23259205  0.51167091  0.27896651  1
  Br  Br45  1  0.98958333  0.75625116  0.48293481  1
  Br  Br46  1  0.27216280  0.48911031  0.76055970  1
  Br  Br47  1  0.73359187  0.49033497  0.75286780  1
