# generated using pymatgen
data_HfBeH12C2(I3N)2
_symmetry_space_group_name_H-M   'P 1'
_cell_length_a   7.36748865
_cell_length_b   13.62198312
_cell_length_c   8.60168472
_cell_angle_alpha   80.23476367
_cell_angle_beta   89.96551717
_cell_angle_gamma   89.78974491
_symmetry_Int_Tables_number   1
_chemical_formula_structural   HfBeH12C2(I3N)2
_chemical_formula_sum   'Hf2 Be2 H24 C4 I12 N4'
_cell_volume   850.74984963
_cell_formula_units_Z   2
loop_
 _symmetry_equiv_pos_site_id
 _symmetry_equiv_pos_as_xyz
  1  'x, y, z'
loop_
 _atom_site_type_symbol
 _atom_site_label
 _atom_site_symmetry_multiplicity
 _atom_site_fract_x
 _atom_site_fract_y
 _atom_site_fract_z
 _atom_site_occupancy
  C  C0  1  0.36387230  0.26421427  0.32925810  1
  C  C1  1  0.86608921  0.26001186  0.14881870  1
  C  C2  1  0.63382919  0.75983328  0.64868159  1
  C  C3  1  0.13652697  0.76431986  0.82876202  1
  N  N4  1  0.46425993  0.26627427  0.47804884  1
  N  N5  1  0.01428322  0.25600392  0.03244072  1
  N  N6  1  0.48567265  0.75589217  0.53244956  1
  N  N7  1  0.03811390  0.76624338  0.97864965  1
  H  H8  1  0.46067135  0.26839541  0.23168660  1
  H  H9  1  0.28636713  0.19459277  0.34215579  1
  H  H10  1  0.27170773  0.32862027  0.30875860  1
  H  H11  1  0.55269973  0.20631170  0.50381960  1
  H  H12  1  0.53925120  0.33201354  0.47555625  1
  H  H13  1  0.37706679  0.26087264  0.57422916  1
  H  H14  1  0.92288327  0.27852262  0.25798811  1
  H  H15  1  0.79814758  0.18725599  0.17448310  1
  H  H16  1  0.76846979  0.31811367  0.10015186  1
  H  H17  1  0.10291409  0.19979040  0.07755584  1
  H  H18  1  0.93213778  0.40902674  0.81741569  1
  H  H19  1  0.95895755  0.23053175  0.93571861  1
  H  H20  1  0.57683091  0.77835907  0.75791128  1
  H  H21  1  0.70264177  0.68705452  0.67427580  1
  H  H22  1  0.73075233  0.81790140  0.59993453  1
  H  H23  1  0.56655412  0.90889205  0.31771337  1
  H  H24  1  0.39764640  0.69975638  0.57767442  1
  H  H25  1  0.54125046  0.73033892  0.43571084  1
  H  H26  1  0.03844201  0.76868100  0.73218673  1
  H  H27  1  0.22791599  0.82868046  0.80749092  1
  H  H28  1  0.21471918  0.69465111  0.84065565  1
  H  H29  1  0.96196070  0.83182316  0.97687419  1
  H  H30  1  0.95114358  0.70601656  0.00543683  1
  H  H31  1  0.12675719  0.76107864  0.07373351  1
  Be  Be32  1  0.57623353  0.90310940  0.15080353  1
  Be  Be33  1  0.92293196  0.40298847  0.65061986  1
  Hf  Hf34  1  0.31764468  0.89197073  0.40177342  1
  Hf  Hf35  1  0.18097579  0.39193327  0.90156610  1
  I  I36  1  0.43056059  0.23596653  0.88593415  1
  I  I37  1  0.28018889  0.98265570  0.08629417  1
  I  I38  1  0.00347278  0.99511990  0.46262731  1
  I  I39  1  0.94784739  0.23269830  0.62577297  1
  I  I40  1  0.48640902  0.00328210  0.60434744  1
  I  I41  1  0.79524603  0.99513655  0.99548383  1
  I  I42  1  0.55284564  0.73294745  0.12532820  1
  I  I43  1  0.70328792  0.49535107  0.49530836  1
  I  I44  1  0.01011698  0.50343132  0.10380556  1
  I  I45  1  0.07002576  0.73607747  0.38593144  1
  I  I46  1  0.21827940  0.48207883  0.58593398  1
  I  I47  1  0.49342138  0.49525741  0.96253981  1
