# generated using pymatgen
data_H6CBr3N2
_symmetry_space_group_name_H-M   'P 1'
_cell_length_a   8.60491442
_cell_length_b   10.26726952
_cell_length_c   7.89009992
_cell_angle_alpha   110.44372067
_cell_angle_beta   90.35632446
_cell_angle_gamma   89.62647913
_symmetry_Int_Tables_number   1
_chemical_formula_structural   H6CBr3N2
_chemical_formula_sum   'H24 C4 Br12 N8'
_cell_volume   653.15736987
_cell_formula_units_Z   4
loop_
 _symmetry_equiv_pos_site_id
 _symmetry_equiv_pos_as_xyz
  1  'x, y, z'
loop_
 _atom_site_type_symbol
 _atom_site_label
 _atom_site_symmetry_multiplicity
 _atom_site_fract_x
 _atom_site_fract_y
 _atom_site_fract_z
 _atom_site_occupancy
  C  C0  1  0.53088650  0.32013554  0.39740525  1
  C  C1  1  0.95284559  0.20957873  0.13917127  1
  C  C2  1  0.54725961  0.70652414  0.63644029  1
  C  C3  1  0.96778954  0.82094130  0.89410019  1
  N  N4  1  0.47065899  0.25272033  0.52177249  1
  N  N5  1  0.94997066  0.21407957  0.95408540  1
  N  N6  1  0.54977881  0.71296792  0.45236211  1
  N  N7  1  0.02877238  0.75510978  0.02101022  1
  H  H8  1  0.56514209  0.23953719  0.27072454  1
  H  H9  1  0.43875666  0.38447259  0.37059879  1
  H  H10  1  0.63174278  0.38334874  0.46010575  1
  H  H11  1  0.38153328  0.18442664  0.46174557  1
  H  H12  1  0.55461926  0.19451282  0.56229262  1
  H  H13  1  0.42614369  0.32353382  0.64001193  1
  H  H14  1  0.07292121  0.21970418  0.18801604  1
  H  H15  1  0.90275174  0.11154585  0.13759835  1
  H  H16  1  0.88565438  0.29747701  0.22830118  1
  H  H17  1  0.01640738  0.13483945  0.85957049  1
  H  H18  1  0.98771464  0.30892141  0.95245577  1
  H  H19  1  0.83759530  0.19709781  0.89829798  1
  H  H20  1  0.42665975  0.71042710  0.68083191  1
  H  H21  1  0.60402376  0.61056893  0.63508123  1
  H  H22  1  0.60831058  0.79689228  0.72899428  1
  H  H23  1  0.50741582  0.80707987  0.45148292  1
  H  H24  1  0.48653080  0.63238924  0.35529693  1
  H  H25  1  0.66259560  0.69965354  0.39926969  1
  H  H26  1  0.93492960  0.73943280  0.76752725  1
  H  H27  1  0.86592237  0.88413217  0.95418627  1
  H  H28  1  0.05905322  0.88508528  0.86774316  1
  H  H29  1  0.94564671  0.69709372  0.06102444  1
  H  H30  1  0.11906531  0.68700406  0.96335288  1
  H  H31  1  0.07206182  0.82675576  0.13948675  1
  N  N32  1  0.48918644  0.90857823  0.04503824  1
  N  N33  1  0.00852258  0.40891499  0.54738542  1
  N  N34  1  0.09354025  0.01927010  0.63789444  1
  N  N35  1  0.40911966  0.51920692  0.13640821  1
  Br  Br36  1  0.49784011  0.34648865  0.97093463  1
  Br  Br37  1  0.30428578  0.01842964  0.14726870  1
  Br  Br38  1  0.65239966  0.96346096  0.22768953  1
  Br  Br39  1  0.06110771  0.19600110  0.55736806  1
  Br  Br40  1  0.31847596  0.00498091  0.66327974  1
  Br  Br41  1  0.65698757  0.06613593  0.72466388  1
  Br  Br42  1  0.43904454  0.69602406  0.05511532  1
  Br  Br43  1  0.84601739  0.56973585  0.22491565  1
  Br  Br44  1  0.18461029  0.50560499  0.16192519  1
  Br  Br45  1  0.00555354  0.84736662  0.47017950  1
  Br  Br46  1  0.19396654  0.51745123  0.64785923  1
  Br  Br47  1  0.84820588  0.46443853  0.73202691  1
