# generated using pymatgen
data_MgH6CBr3N
_symmetry_space_group_name_H-M   'P 1'
_cell_length_a   7.48169210
_cell_length_b   10.67337769
_cell_length_c   7.86772108
_cell_angle_alpha   89.99994632
_cell_angle_beta   89.99887513
_cell_angle_gamma   90.00018515
_symmetry_Int_Tables_number   1
_chemical_formula_structural   MgH6CBr3N
_chemical_formula_sum   'Mg4 H24 C4 Br12 N4'
_cell_volume   628.27628087
_cell_formula_units_Z   4
loop_
 _symmetry_equiv_pos_site_id
 _symmetry_equiv_pos_as_xyz
  1  'x, y, z'
loop_
 _atom_site_type_symbol
 _atom_site_label
 _atom_site_symmetry_multiplicity
 _atom_site_fract_x
 _atom_site_fract_y
 _atom_site_fract_z
 _atom_site_occupancy
  C  C0  1  0.46946094  0.24998988  0.42403349  1
  C  C1  1  0.96937946  0.24998775  0.07594723  1
  C  C2  1  0.53054276  0.75001289  0.57597637  1
  C  C3  1  0.03061934  0.75001824  0.92406559  1
  N  N4  1  0.55222654  0.25001368  0.59413116  1
  N  N5  1  0.05225541  0.25001112  0.90589878  1
  N  N6  1  0.44777158  0.74998912  0.40588118  1
  N  N7  1  0.94774539  0.74999057  0.09411490  1
  H  H8  1  0.57569280  0.24998712  0.32932883  1
  H  H9  1  0.38732462  0.16590901  0.41052253  1
  H  H10  1  0.38730604  0.33406293  0.41049180  1
  H  H11  1  0.63183138  0.17163435  0.61386026  1
  H  H12  1  0.63181864  0.32839663  0.61382999  1
  H  H13  1  0.45888829  0.25001809  0.69109064  1
  H  H14  1  0.07557780  0.24998617  0.17070456  1
  H  H15  1  0.88724637  0.16590894  0.08943261  1
  H  H16  1  0.88722774  0.33406008  0.08946020  1
  H  H17  1  0.13184793  0.17163331  0.88619412  1
  H  H18  1  0.13183524  0.32839053  0.88622176  1
  H  H19  1  0.95894076  0.25001405  0.80888196  1
  H  H20  1  0.42430956  0.75001582  0.67068268  1
  H  H21  1  0.61269593  0.66593987  0.58951816  1
  H  H22  1  0.61267797  0.83409338  0.58948731  1
  H  H23  1  0.36816999  0.82836813  0.38615110  1
  H  H24  1  0.36818289  0.67160639  0.38618119  1
  H  H25  1  0.54111333  0.74998475  0.30891907  1
  H  H26  1  0.92442019  0.75002036  0.82930948  1
  H  H27  1  0.11275110  0.83409711  0.91058219  1
  H  H28  1  0.11277189  0.66594597  0.91054981  1
  H  H29  1  0.86815244  0.82836940  0.11382260  1
  H  H30  1  0.86816494  0.67161203  0.11378999  1
  H  H31  1  0.04106026  0.74998679  0.19113127  1
  Mg  Mg32  1  0.50000125  0.00000122  0.00000657  1
  Mg  Mg33  1  0.00000141  0.50000125  0.50000698  1
  Mg  Mg34  1  0.00000163  0.00000122  0.50000672  1
  Mg  Mg35  1  0.50000114  0.50000112  0.00000687  1
  Br  Br36  1  0.48718774  0.25000221  0.00404179  1
  Br  Br37  1  0.21653123  0.98916342  0.21360558  1
  Br  Br38  1  0.71653207  0.98915219  0.28641124  1
  Br  Br39  1  0.98719380  0.25000262  0.49597629  1
  Br  Br40  1  0.28346984  0.01085090  0.71360183  1
  Br  Br41  1  0.78346999  0.01084033  0.78640724  1
  Br  Br42  1  0.51281203  0.75000061  0.99596952  1
  Br  Br43  1  0.71652027  0.51083868  0.28642743  1
  Br  Br44  1  0.21651677  0.51082793  0.21358542  1
  Br  Br45  1  0.01280896  0.75000017  0.50403711  1
  Br  Br46  1  0.28348133  0.48916429  0.71358590  1
  Br  Br47  1  0.78348476  0.48917565  0.78642730  1
