# generated using pymatgen
data_AlH6CBr3N
_symmetry_space_group_name_H-M   'P 1'
_cell_length_a   8.10375478
_cell_length_b   10.05691935
_cell_length_c   9.21052931
_cell_angle_alpha   88.24785063
_cell_angle_beta   90.00399123
_cell_angle_gamma   89.98871799
_symmetry_Int_Tables_number   1
_chemical_formula_structural   AlH6CBr3N
_chemical_formula_sum   'Al4 H24 C4 Br12 N4'
_cell_volume   750.29617614
_cell_formula_units_Z   4
loop_
 _symmetry_equiv_pos_site_id
 _symmetry_equiv_pos_as_xyz
  1  'x, y, z'
loop_
 _atom_site_type_symbol
 _atom_site_label
 _atom_site_symmetry_multiplicity
 _atom_site_fract_x
 _atom_site_fract_y
 _atom_site_fract_z
 _atom_site_occupancy
  C  C0  1  0.48541668  0.29178357  0.41707769  1
  C  C1  1  0.98578095  0.20861266  0.08302611  1
  C  C2  1  0.50424424  0.74002614  0.56180443  1
  C  C3  1  0.00424790  0.75980578  0.93843130  1
  N  N4  1  0.52331105  0.23251333  0.56296905  1
  N  N5  1  0.02334601  0.26749866  0.93690234  1
  N  N6  1  0.43112953  0.68563011  0.42770465  1
  N  N7  1  0.93093311  0.81449319  0.07230158  1
  H  H8  1  0.59999298  0.32915105  0.36794809  1
  H  H9  1  0.43075217  0.21566351  0.34970217  1
  H  H10  1  0.39709801  0.37312606  0.42955935  1
  H  H11  1  0.59408134  0.14739590  0.55430568  1
  H  H12  1  0.59254584  0.29880870  0.62347500  1
  H  H13  1  0.41880088  0.20556238  0.62211293  1
  H  H14  1  0.10054718  0.17169640  0.13226159  1
  H  H15  1  0.89782039  0.12700686  0.07092526  1
  H  H16  1  0.93082771  0.28484489  0.15010215  1
  H  H17  1  0.09277647  0.20113110  0.87661327  1
  H  H18  1  0.09376535  0.35279660  0.94515328  1
  H  H19  1  0.91865004  0.29400951  0.87773135  1
  H  H20  1  0.40916867  0.79419043  0.62025959  1
  H  H21  1  0.55225680  0.65765051  0.62950805  1
  H  H22  1  0.60495514  0.80706370  0.52960963  1
  H  H23  1  0.38672592  0.76173502  0.35804257  1
  H  H24  1  0.33136543  0.62262690  0.45059076  1
  H  H25  1  0.52104307  0.63352329  0.37141523  1
  H  H26  1  0.90915193  0.70587455  0.87977300  1
  H  H27  1  0.05280392  0.84199480  0.87079195  1
  H  H28  1  0.10458257  0.69248082  0.97096994  1
  H  H29  1  0.83123459  0.87755388  0.04915167  1
  H  H30  1  0.88635901  0.73852198  0.14201674  1
  H  H31  1  0.02078433  0.86660067  0.12862479  1
  Al  Al32  1  0.50804065  0.98684917  0.02357043  1
  Al  Al33  1  0.00802971  0.51275108  0.47635359  1
  Al  Al34  1  0.93396880  0.01129096  0.53505425  1
  Al  Al35  1  0.43422812  0.48850778  0.96487781  1
  Br  Br36  1  0.59599226  0.30395587  0.01690440  1
  Br  Br37  1  0.28285841  0.93719395  0.21377051  1
  Br  Br38  1  0.73724965  0.00678603  0.34960634  1
  Br  Br39  1  0.09568439  0.19582472  0.48301217  1
  Br  Br40  1  0.30183373  0.04350485  0.82246846  1
  Br  Br41  1  0.79437938  0.03719804  0.75427518  1
  Br  Br42  1  0.56222162  0.69437802  0.94938927  1
  Br  Br43  1  0.78287396  0.56277238  0.28613132  1
  Br  Br44  1  0.23749940  0.49310034  0.15026869  1
  Br  Br45  1  0.06217967  0.80549379  0.55067192  1
  Br  Br46  1  0.29469786  0.46262710  0.74560916  1
  Br  Br47  1  0.80178691  0.45647123  0.67747189  1
