# generated using pymatgen
data_SiH6CBr3N
_symmetry_space_group_name_H-M   'P 1'
_cell_length_a   7.90883671
_cell_length_b   11.17362119
_cell_length_c   8.15541037
_cell_angle_alpha   90.87756899
_cell_angle_beta   90.05846431
_cell_angle_gamma   89.60409686
_symmetry_Int_Tables_number   1
_chemical_formula_structural   SiH6CBr3N
_chemical_formula_sum   'Si4 H24 C4 Br12 N4'
_cell_volume   720.59439369
_cell_formula_units_Z   4
loop_
 _symmetry_equiv_pos_site_id
 _symmetry_equiv_pos_as_xyz
  1  'x, y, z'
loop_
 _atom_site_type_symbol
 _atom_site_label
 _atom_site_symmetry_multiplicity
 _atom_site_fract_x
 _atom_site_fract_y
 _atom_site_fract_z
 _atom_site_occupancy
  C  C0  1  0.46573701  0.24645726  0.44488216  1
  C  C1  1  0.96259549  0.24895634  0.05823135  1
  C  C2  1  0.53273152  0.74717696  0.55579786  1
  C  C3  1  0.03146457  0.74845746  0.94006888  1
  N  N4  1  0.57209235  0.24969270  0.59516596  1
  N  N5  1  0.07329927  0.24809557  0.91125358  1
  N  N6  1  0.42808077  0.74919597  0.40437998  1
  N  N7  1  0.92691289  0.74871624  0.09139765  1
  H  H8  1  0.54864657  0.24146615  0.33785747  1
  H  H9  1  0.38489458  0.16748145  0.44819706  1
  H  H10  1  0.38846435  0.32800842  0.44196876  1
  H  H11  1  0.64744094  0.17357940  0.60445076  1
  H  H12  1  0.65210491  0.32287424  0.59808708  1
  H  H13  1  0.50147485  0.25508501  0.70243871  1
  H  H14  1  0.04240803  0.24788356  0.16770135  1
  H  H15  1  0.88254527  0.16951381  0.05381089  1
  H  H16  1  0.88483301  0.33034470  0.05768554  1
  H  H17  1  0.14830357  0.17150339  0.90378397  1
  H  H18  1  0.15392782  0.32070529  0.91204393  1
  H  H19  1  0.00603453  0.25128394  0.80176532  1
  H  H20  1  0.44854717  0.74376846  0.66171639  1
  H  H21  1  0.61445764  0.66779183  0.55139305  1
  H  H22  1  0.60875187  0.82856421  0.56126697  1
  H  H23  1  0.34645313  0.82201118  0.40318277  1
  H  H24  1  0.35464289  0.67300896  0.39225325  1
  H  H25  1  0.49992590  0.75359484  0.29804606  1
  H  H26  1  0.94720796  0.74524892  0.83387988  1
  H  H27  1  0.10638763  0.83036372  0.93913470  1
  H  H28  1  0.11420509  0.66962131  0.94022108  1
  H  H29  1  0.84491709  0.82135566  0.09657103  1
  H  H30  1  0.85328686  0.67242277  0.09964754  1
  H  H31  1  0.99838704  0.75287688  0.19840224  1
  Si  Si32  1  0.47359715  0.99084184  0.00016494  1
  Si  Si33  1  0.00460477  0.48532324  0.53590892  1
  Si  Si34  1  0.97439120  0.98729498  0.50520890  1
  Si  Si35  1  0.48759423  0.49288093  0.03133607  1
  Br  Br36  1  0.49556831  0.27473832  0.00426393  1
  Br  Br37  1  0.23684010  0.99675702  0.19070597  1
  Br  Br38  1  0.73820476  0.99520855  0.31262813  1
  Br  Br39  1  0.00010436  0.26826111  0.50388866  1
  Br  Br40  1  0.30771818  0.00811090  0.74821550  1
  Br  Br41  1  0.80690921  0.00677397  0.75520158  1
  Br  Br42  1  0.50743923  0.77341802  0.99529758  1
  Br  Br43  1  0.69179297  0.51078732  0.25627835  1
  Br  Br44  1  0.23208855  0.50568433  0.19837298  1
  Br  Br45  1  0.00618681  0.76903020  0.49660019  1
  Br  Br46  1  0.26247647  0.49531211  0.69748539  1
  Br  Br47  1  0.80334486  0.49254887  0.76205631  1
