# generated using pymatgen
data_PH6CBr3N
_symmetry_space_group_name_H-M   'P 1'
_cell_length_a   8.36753372
_cell_length_b   10.43666089
_cell_length_c   8.49186492
_cell_angle_alpha   92.14064188
_cell_angle_beta   103.02648927
_cell_angle_gamma   91.57598127
_symmetry_Int_Tables_number   1
_chemical_formula_structural   PH6CBr3N
_chemical_formula_sum   'P4 H24 C4 Br12 N4'
_cell_volume   721.50717841
_cell_formula_units_Z   4
loop_
 _symmetry_equiv_pos_site_id
 _symmetry_equiv_pos_as_xyz
  1  'x, y, z'
loop_
 _atom_site_type_symbol
 _atom_site_label
 _atom_site_symmetry_multiplicity
 _atom_site_fract_x
 _atom_site_fract_y
 _atom_site_fract_z
 _atom_site_occupancy
  C  C0  1  0.56006995  0.26631945  0.42267719  1
  C  C1  1  0.03352542  0.22338849  0.02237276  1
  C  C2  1  0.45381049  0.73114685  0.54354799  1
  C  C3  1  0.98646194  0.74741131  0.05047384  1
  N  N4  1  0.43260206  0.23943478  0.51406971  1
  N  N5  1  0.99314476  0.25528536  0.84900141  1
  N  N6  1  0.52276608  0.75147865  0.39987322  1
  N  N7  1  0.03508657  0.75478595  0.23043468  1
  H  H8  1  0.64282964  0.18623342  0.43188108  1
  H  H9  1  0.49922974  0.27660280  0.29574089  1
  H  H10  1  0.62812003  0.35525299  0.47185757  1
  H  H11  1  0.36419653  0.15677026  0.46422875  1
  H  H12  1  0.48293327  0.22544133  0.63446877  1
  H  H13  1  0.35110250  0.31884660  0.50848673  1
  H  H14  1  0.12859095  0.15189976  0.04154493  1
  H  H15  1  0.92290664  0.18457510  0.05443297  1
  H  H16  1  0.07836194  0.31107211  0.09549552  1
  H  H17  1  0.95955340  0.17317834  0.77218892  1
  H  H18  1  0.09166089  0.30099569  0.81676836  1
  H  H19  1  0.89659963  0.31856017  0.82496498  1
  H  H20  1  0.32019780  0.71718426  0.50507232  1
  H  H21  1  0.50723878  0.64657766  0.60451971  1
  H  H22  1  0.48303741  0.81610387  0.62546052  1
  H  H23  1  0.47428281  0.83449170  0.34247695  1
  H  H24  1  0.49069031  0.67417388  0.31619204  1
  H  H25  1  0.64988866  0.76290103  0.43428601  1
  H  H26  1  0.88402118  0.67764676  0.01066809  1
  H  H27  1  0.95030555  0.84277274  0.00933223  1
  H  H28  1  0.09210319  0.71750149  0.00403001  1
  H  H29  1  0.94186978  0.78969499  0.28001733  1
  H  H30  1  0.06587052  0.66614654  0.27980183  1
  H  H31  1  0.13456982  0.82177926  0.26630619  1
  P  P32  1  0.53874438  0.99161541  0.00632230  1
  P  P33  1  0.16526708  0.46280598  0.47287269  1
  P  P34  1  0.95351514  0.00156379  0.56383206  1
  P  P35  1  0.52021341  0.48996664  0.98504150  1
  Br  Br36  1  0.45950401  0.27269973  0.95830049  1
  Br  Br37  1  0.30735284  0.98964138  0.25303598  1
  Br  Br38  1  0.76805927  0.99309189  0.24155959  1
  Br  Br39  1  0.99206812  0.28347815  0.43762992  1
  Br  Br40  1  0.22612375  0.01410099  0.68835164  1
  Br  Br41  1  0.69353059  0.01595174  0.80983884  1
  Br  Br42  1  0.48022775  0.77799007  0.96716213  1
  Br  Br43  1  0.74062366  0.50407678  0.20411954  1
  Br  Br44  1  0.30812663  0.51716564  0.16645913  1
  Br  Br45  1  0.91191340  0.78573216  0.60369216  1
  Br  Br46  1  0.17361354  0.52601022  0.73819892  1
  Br  Br47  1  0.70351189  0.47853409  0.78120621  1
