# generated using pymatgen
data_CaH6CBr3N
_symmetry_space_group_name_H-M   'P 1'
_cell_length_a   8.06304959
_cell_length_b   11.43525775
_cell_length_c   7.81432776
_cell_angle_alpha   89.99995272
_cell_angle_beta   89.99817015
_cell_angle_gamma   90.01349973
_symmetry_Int_Tables_number   1
_chemical_formula_structural   CaH6CBr3N
_chemical_formula_sum   'Ca4 H24 C4 Br12 N4'
_cell_volume   720.50483525
_cell_formula_units_Z   4
loop_
 _symmetry_equiv_pos_site_id
 _symmetry_equiv_pos_as_xyz
  1  'x, y, z'
loop_
 _atom_site_type_symbol
 _atom_site_label
 _atom_site_symmetry_multiplicity
 _atom_site_fract_x
 _atom_site_fract_y
 _atom_site_fract_z
 _atom_site_occupancy
  C  C0  1  0.40809645  0.25056392  0.42012623  1
  C  C1  1  0.90815245  0.25052594  0.07990011  1
  C  C2  1  0.59196103  0.74954490  0.57992923  1
  C  C3  1  0.09192273  0.74951340  0.92021468  1
  N  N4  1  0.55689392  0.25008570  0.53112113  1
  N  N5  1  0.05694171  0.25019543  0.96889210  1
  N  N6  1  0.44317773  0.74985549  0.46892199  1
  N  N7  1  0.94312862  0.74996182  0.03121707  1
  H  H8  1  0.44841325  0.25069781  0.28655894  1
  H  H9  1  0.33533425  0.17210345  0.44663341  1
  H  H10  1  0.33614249  0.32924816  0.44717141  1
  H  H11  1  0.62821077  0.17651389  0.50523984  1
  H  H12  1  0.62891099  0.32335244  0.50560436  1
  H  H13  1  0.52649792  0.25001388  0.66104420  1
  H  H14  1  0.94852794  0.25060070  0.21348231  1
  H  H15  1  0.83550050  0.17203862  0.05336734  1
  H  H16  1  0.83609836  0.32917805  0.05299479  1
  H  H17  1  0.12837476  0.17667852  0.99470844  1
  H  H18  1  0.12883297  0.32352270  0.99441209  1
  H  H19  1  0.02650690  0.25010619  0.83895798  1
  H  H20  1  0.55159795  0.74947255  0.71351342  1
  H  H21  1  0.66406427  0.67091706  0.55302219  1
  H  H22  1  0.66457100  0.82805273  0.55338342  1
  H  H23  1  0.37174317  0.82337761  0.49472451  1
  H  H24  1  0.37128140  0.67653202  0.49445761  1
  H  H25  1  0.47361836  0.74992223  0.33899145  1
  H  H26  1  0.05156987  0.74937963  0.78662653  1
  H  H27  1  0.16463049  0.82798482  0.94669302  1
  H  H28  1  0.16391291  0.67085034  0.94721488  1
  H  H29  1  0.87181567  0.82354307  0.00540089  1
  H  H30  1  0.87111107  0.67670444  0.00573663  1
  H  H31  1  0.97357616  0.75001562  0.16115402  1
  Ca  Ca32  1  0.49980934  0.00005135  0.00006344  1
  Ca  Ca33  1  0.99992709  0.49972754  0.49966757  1
  Ca  Ca34  1  0.99982135  0.99974251  0.50009282  1
  Ca  Ca35  1  0.50004803  0.50008308  0.99963845  1
  Br  Br36  1  0.48190226  0.25004053  0.94786054  1
  Br  Br37  1  0.18989672  0.01291703  0.18541989  1
  Br  Br38  1  0.68991760  0.01287501  0.31472908  1
  Br  Br39  1  0.98181229  0.24978037  0.55210074  1
  Br  Br40  1  0.30978223  0.98702726  0.68537062  1
  Br  Br41  1  0.80977534  0.98703585  0.81479506  1
  Br  Br42  1  0.51810917  0.75003826  0.05209432  1
  Br  Br43  1  0.69023865  0.48708702  0.31412556  1
  Br  Br44  1  0.19043278  0.48706010  0.18542176  1
  Br  Br45  1  0.01814159  0.74977868  0.44793513  1
  Br  Br46  1  0.30954068  0.51288997  0.68543513  1
  Br  Br47  1  0.80975055  0.51289061  0.81413027  1
