# generated using pymatgen
data_ZnH6CBr3N
_symmetry_space_group_name_H-M   'P 1'
_cell_length_a   6.87315271
_cell_length_b   12.43201448
_cell_length_c   8.09753763
_cell_angle_alpha   90.00192619
_cell_angle_beta   89.99224528
_cell_angle_gamma   89.99221414
_symmetry_Int_Tables_number   1
_chemical_formula_structural   ZnH6CBr3N
_chemical_formula_sum   'Zn4 H24 C4 Br12 N4'
_cell_volume   691.91136988
_cell_formula_units_Z   4
loop_
 _symmetry_equiv_pos_site_id
 _symmetry_equiv_pos_as_xyz
  1  'x, y, z'
loop_
 _atom_site_type_symbol
 _atom_site_label
 _atom_site_symmetry_multiplicity
 _atom_site_fract_x
 _atom_site_fract_y
 _atom_site_fract_z
 _atom_site_occupancy
  C  C0  1  0.36587281  0.24571795  0.34808009  1
  C  C1  1  0.86547737  0.24589583  0.15160545  1
  C  C2  1  0.63405998  0.74563350  0.65199429  1
  C  C3  1  0.13458149  0.74591224  0.84841572  1
  N  N4  1  0.52331536  0.26717476  0.46796137  1
  N  N5  1  0.02309503  0.26711516  0.03175650  1
  N  N6  1  0.47672611  0.76723091  0.53206218  1
  N  N7  1  0.97690210  0.76708430  0.96823912  1
  H  H8  1  0.42774163  0.24247782  0.22338481  1
  H  H9  1  0.29785491  0.16895077  0.37998637  1
  H  H10  1  0.26021129  0.31132725  0.35634948  1
  H  H11  1  0.63095135  0.20894027  0.46419540  1
  H  H12  1  0.59024577  0.34178912  0.44576113  1
  H  H13  1  0.47344180  0.26691237  0.59027423  1
  H  H14  1  0.92724073  0.24271510  0.27632847  1
  H  H15  1  0.79726437  0.16916171  0.11982101  1
  H  H16  1  0.76001417  0.31159263  0.14316273  1
  H  H17  1  0.13053886  0.20877957  0.03565580  1
  H  H18  1  0.09021940  0.34168009  0.05391125  1
  H  H19  1  0.97333572  0.26684228  0.90942086  1
  H  H20  1  0.57213148  0.74241161  0.77666587  1
  H  H21  1  0.70192297  0.66882018  0.62006144  1
  H  H22  1  0.73987995  0.81116224  0.64380040  1
  H  H23  1  0.40991261  0.84189430  0.55429996  1
  H  H24  1  0.36898619  0.70908486  0.53573063  1
  H  H25  1  0.52667821  0.76698044  0.40977655  1
  H  H26  1  0.07285601  0.74272603  0.72368060  1
  H  H27  1  0.23997776  0.81163492  0.85689586  1
  H  H28  1  0.20286324  0.66919331  0.88019828  1
  H  H29  1  0.90971750  0.84164556  0.94608187  1
  H  H30  1  0.86953386  0.70873344  0.96429599  1
  H  H31  1  0.02663086  0.76682212  0.09058427  1
  Zn  Zn32  1  0.56594910  0.94095506  0.11926217  1
  Zn  Zn33  1  0.93408307  0.44100586  0.61923914  1
  Zn  Zn34  1  0.06592662  0.94101998  0.38074017  1
  Zn  Zn35  1  0.43402316  0.44095784  0.88069098  1
  Br  Br36  1  0.46275896  0.24969074  0.86898524  1
  Br  Br37  1  0.22344537  0.00870008  0.12127635  1
  Br  Br38  1  0.72345203  0.00878610  0.37859218  1
  Br  Br39  1  0.96288998  0.24973209  0.63069093  1
  Br  Br40  1  0.24486895  0.99716178  0.61553043  1
  Br  Br41  1  0.74488839  0.99697443  0.88437998  1
  Br  Br42  1  0.53725741  0.74969365  0.13105533  1
  Br  Br43  1  0.75510731  0.49712385  0.38444998  1
  Br  Br44  1  0.25505280  0.49701583  0.11555313  1
  Br  Br45  1  0.03709160  0.74974616  0.36933731  1
  Br  Br46  1  0.27652270  0.50878444  0.62136938  1
  Br  Br47  1  0.77652541  0.50868777  0.87870590  1
