# generated using pymatgen
data_GaH6CBr3N
_symmetry_space_group_name_H-M   'P 1'
_cell_length_a   8.11688289
_cell_length_b   10.13202403
_cell_length_c   9.08292131
_cell_angle_alpha   91.21874190
_cell_angle_beta   89.99847939
_cell_angle_gamma   90.01002115
_symmetry_Int_Tables_number   1
_chemical_formula_structural   GaH6CBr3N
_chemical_formula_sum   'Ga4 H24 C4 Br12 N4'
_cell_volume   746.81456423
_cell_formula_units_Z   4
loop_
 _symmetry_equiv_pos_site_id
 _symmetry_equiv_pos_as_xyz
  1  'x, y, z'
loop_
 _atom_site_type_symbol
 _atom_site_label
 _atom_site_symmetry_multiplicity
 _atom_site_fract_x
 _atom_site_fract_y
 _atom_site_fract_z
 _atom_site_occupancy
  C  C0  1  0.48844151  0.24194340  0.43272097  1
  C  C1  1  0.99790338  0.24820115  0.06878212  1
  C  C2  1  0.50199530  0.74844391  0.56873158  1
  C  C3  1  0.01185821  0.74215167  0.93252505  1
  N  N4  1  0.54198727  0.24865928  0.58905358  1
  N  N5  1  0.05462868  0.27151406  0.91615295  1
  N  N6  1  0.44554112  0.77133000  0.41594031  1
  N  N7  1  0.95803868  0.74850760  0.08879604  1
  H  H8  1  0.59646099  0.22728779  0.36222904  1
  H  H9  1  0.40233131  0.15955740  0.41684889  1
  H  H10  1  0.42647273  0.33482530  0.40778552  1
  H  H11  1  0.59159463  0.16071672  0.62471280  1
  H  H12  1  0.63192962  0.32114087  0.61024299  1
  H  H13  1  0.44343767  0.27503219  0.65670349  1
  H  H14  1  0.10340570  0.21914791  0.13555039  1
  H  H15  1  0.90616205  0.16888330  0.06680869  1
  H  H16  1  0.94266083  0.33913028  0.11342177  1
  H  H17  1  0.09660946  0.18560049  0.86450312  1
  H  H18  1  0.15160066  0.33810663  0.91029805  1
  H  H19  1  0.96101433  0.31222456  0.85137344  1
  H  H20  1  0.39633678  0.71972004  0.63550382  1
  H  H21  1  0.59356846  0.66902649  0.56716977  1
  H  H22  1  0.55737855  0.83944694  0.61307186  1
  H  H23  1  0.34874914  0.83805247  0.40965658  1
  H  H24  1  0.40344059  0.68531013  0.36458329  1
  H  H25  1  0.53933910  0.81173307  0.35112102  1
  H  H26  1  0.90392425  0.72786784  0.86183859  1
  H  H27  1  0.07414354  0.83501547  0.90801011  1
  H  H28  1  0.09774836  0.65966737  0.91647288  1
  H  H29  1  0.86827308  0.82108653  0.11010142  1
  H  H30  1  0.90810852  0.66053706  0.12407563  1
  H  H31  1  0.05652797  0.77451700  0.15667566  1
  Ga  Ga32  1  0.48377068  0.98463271  0.02246007  1
  Ga  Ga33  1  0.01606387  0.48473352  0.52242213  1
  Ga  Ga34  1  0.99678921  0.00520973  0.58705586  1
  Ga  Ga35  1  0.50293048  0.50512745  0.08701367  1
  Br  Br36  1  0.50656588  0.28502676  0.99203955  1
  Br  Br37  1  0.23319624  0.96729109  0.20364944  1
  Br  Br38  1  0.70196058  0.96268286  0.23863521  1
  Br  Br39  1  0.97140602  0.19758994  0.44506552  1
  Br  Br40  1  0.25459745  0.02486262  0.71616611  1
  Br  Br41  1  0.78333026  0.02055358  0.76946733  1
  Br  Br42  1  0.52826601  0.69750909  0.94501455  1
  Br  Br43  1  0.71655916  0.52044522  0.26925126  1
  Br  Br44  1  0.24516488  0.52471430  0.21623539  1
  Br  Br45  1  0.99285599  0.78509980  0.49212871  1
  Br  Br46  1  0.26678978  0.46741674  0.70332310  1
  Br  Br47  1  0.79816480  0.46279796  0.73890726  1
