# generated using pymatgen
data_GeH6CBr3N
_symmetry_space_group_name_H-M   'P 1'
_cell_length_a   8.13658755
_cell_length_b   11.22371677
_cell_length_c   7.93571146
_cell_angle_alpha   89.36713119
_cell_angle_beta   89.94270057
_cell_angle_gamma   89.44113825
_symmetry_Int_Tables_number   1
_chemical_formula_structural   GeH6CBr3N
_chemical_formula_sum   'Ge4 H24 C4 Br12 N4'
_cell_volume   724.63205652
_cell_formula_units_Z   4
loop_
 _symmetry_equiv_pos_site_id
 _symmetry_equiv_pos_as_xyz
  1  'x, y, z'
loop_
 _atom_site_type_symbol
 _atom_site_label
 _atom_site_symmetry_multiplicity
 _atom_site_fract_x
 _atom_site_fract_y
 _atom_site_fract_z
 _atom_site_occupancy
  C  C0  1  0.43825838  0.25011526  0.43348795  1
  C  C1  1  0.93928682  0.24821585  0.06594821  1
  C  C2  1  0.56196949  0.75034446  0.56770642  1
  C  C3  1  0.06058193  0.74844791  0.93513998  1
  N  N4  1  0.57596346  0.24803829  0.55592455  1
  N  N5  1  0.07762501  0.25186622  0.94399751  1
  N  N6  1  0.42456149  0.74962316  0.44485778  1
  N  N7  1  0.92408580  0.74967127  0.05942847  1
  H  H8  1  0.48976314  0.25047014  0.30621530  1
  H  H9  1  0.36377393  0.17071325  0.45365785  1
  H  H10  1  0.36468848  0.33076391  0.45321640  1
  H  H11  1  0.64855466  0.17268082  0.53981951  1
  H  H12  1  0.65067009  0.32122392  0.53772986  1
  H  H13  1  0.53587562  0.24858767  0.68101807  1
  H  H14  1  0.99040027  0.24379503  0.19323452  1
  H  H15  1  0.86593554  0.16921659  0.04179256  1
  H  H16  1  0.86496790  0.32916766  0.04995588  1
  H  H17  1  0.15204426  0.17705564  0.95876302  1
  H  H18  1  0.15030388  0.32542858  0.96392476  1
  H  H19  1  0.03799592  0.25535239  0.81877393  1
  H  H20  1  0.51021722  0.74879091  0.69475941  1
  H  H21  1  0.63870671  0.67128969  0.54783538  1
  H  H22  1  0.63278075  0.83146677  0.54779047  1
  H  H23  1  0.34742563  0.82239122  0.46118928  1
  H  H24  1  0.35383846  0.67424984  0.46117727  1
  H  H25  1  0.46516841  0.75158854  0.31985704  1
  H  H26  1  0.00801266  0.74619844  0.80860153  1
  H  H27  1  0.13249738  0.82931218  0.95049156  1
  H  H28  1  0.13675547  0.66921014  0.95817412  1
  H  H29  1  0.84823739  0.82308674  0.04055446  1
  H  H30  1  0.85188822  0.67482656  0.04698868  1
  H  H31  1  0.96577348  0.75201956  0.18384899  1
  Ge  Ge32  1  0.47234975  0.99099667  0.99025706  1
  Ge  Ge33  1  0.98778140  0.49138375  0.47168726  1
  Ge  Ge34  1  0.97122467  0.99271677  0.50476047  1
  Ge  Ge35  1  0.50510694  0.49267482  0.96372920  1
  Br  Br36  1  0.50042118  0.25943327  0.96676608  1
  Br  Br37  1  0.22036027  0.00919993  0.18401163  1
  Br  Br38  1  0.71867945  0.00982443  0.31291738  1
  Br  Br39  1  0.99694910  0.26037787  0.53205036  1
  Br  Br40  1  0.30913894  0.99262179  0.71479724  1
  Br  Br41  1  0.80955348  0.99297712  0.78248656  1
  Br  Br42  1  0.50365618  0.75977128  0.03434334  1
  Br  Br43  1  0.71580843  0.49122066  0.31047279  1
  Br  Br44  1  0.18164409  0.49248621  0.21513727  1
  Br  Br45  1  0.00550735  0.76044164  0.47104156  1
  Br  Br46  1  0.31257305  0.50822529  0.70891800  1
  Br  Br47  1  0.78066159  0.51051818  0.81105970  1
