# generated using pymatgen
data_SrH6CBr3N
_symmetry_space_group_name_H-M   'P 1'
_cell_length_a   8.31832570
_cell_length_b   11.85382618
_cell_length_c   7.95696813
_cell_angle_alpha   89.99993879
_cell_angle_beta   89.99759671
_cell_angle_gamma   89.99961547
_symmetry_Int_Tables_number   1
_chemical_formula_structural   SrH6CBr3N
_chemical_formula_sum   'Sr4 H24 C4 Br12 N4'
_cell_volume   784.58878061
_cell_formula_units_Z   4
loop_
 _symmetry_equiv_pos_site_id
 _symmetry_equiv_pos_as_xyz
  1  'x, y, z'
loop_
 _atom_site_type_symbol
 _atom_site_label
 _atom_site_symmetry_multiplicity
 _atom_site_fract_x
 _atom_site_fract_y
 _atom_site_fract_z
 _atom_site_occupancy
  C  C0  1  0.39618243  0.25001380  0.41471833  1
  C  C1  1  0.89628572  0.25001292  0.08526297  1
  C  C2  1  0.60381136  0.74999026  0.58528836  1
  C  C3  1  0.10372090  0.74998990  0.91474290  1
  N  N4  1  0.54306938  0.24999846  0.52020680  1
  N  N5  1  0.04316124  0.24999673  0.97974448  1
  N  N6  1  0.45691756  0.75000376  0.47981033  1
  N  N7  1  0.95684737  0.74999936  0.02026457  1
  H  H8  1  0.43194343  0.25001160  0.28226465  1
  H  H9  1  0.32656965  0.17407574  0.44261429  1
  H  H10  1  0.32657750  0.32594333  0.44262105  1
  H  H11  1  0.61177047  0.17874435  0.49304018  1
  H  H12  1  0.61177924  0.32126451  0.49304389  1
  H  H13  1  0.51604588  0.25000302  0.64844866  1
  H  H14  1  0.93207044  0.25001459  0.21771054  1
  H  H15  1  0.82667013  0.17407632  0.05739082  1
  H  H16  1  0.82668101  0.32594467  0.05737635  1
  H  H17  1  0.11186167  0.17874089  0.00689379  1
  H  H18  1  0.11187269  0.32125886  0.00688496  1
  H  H19  1  0.01611530  0.24999827  0.85150278  1
  H  H20  1  0.56805479  0.74999328  0.71774568  1
  H  H21  1  0.67341305  0.67406012  0.55738570  1
  H  H22  1  0.67342244  0.82592746  0.55738764  1
  H  H23  1  0.38821907  0.82125781  0.50697615  1
  H  H24  1  0.38821054  0.67873830  0.50697498  1
  H  H25  1  0.48393822  0.74999890  0.35156395  1
  H  H26  1  0.06793472  0.74999444  0.78229661  1
  H  H27  1  0.17333566  0.82592662  0.94262251  1
  H  H28  1  0.17332799  0.67405794  0.94262020  1
  H  H29  1  0.88814422  0.82125429  0.99311986  1
  H  H30  1  0.88813714  0.67873600  0.99311817  1
  H  H31  1  0.98389336  0.74999426  0.14850447  1
  Sr  Sr32  1  0.50002050  0.00000372  0.00000374  1
  Sr  Sr33  1  0.99999232  0.50000528  0.50001529  1
  Sr  Sr34  1  0.00001348  0.00000539  0.50000214  1
  Sr  Sr35  1  0.49998822  0.50000329  0.00001884  1
  Br  Br36  1  0.47100327  0.25000414  0.93301931  1
  Br  Br37  1  0.17839299  0.01855157  0.17109866  1
  Br  Br38  1  0.67839322  0.01855194  0.32890343  1
  Br  Br39  1  0.97094175  0.25000462  0.56697754  1
  Br  Br40  1  0.32162799  0.98145638  0.67111533  1
  Br  Br41  1  0.82165045  0.98145373  0.82891655  1
  Br  Br42  1  0.52900571  0.75000357  0.06699903  1
  Br  Br43  1  0.67837640  0.48145598  0.32890703  1
  Br  Br44  1  0.17835715  0.48145499  0.17110272  1
  Br  Br45  1  0.02905700  0.75000408  0.43303402  1
  Br  Br46  1  0.32160870  0.51854666  0.67112142  1
  Br  Br47  1  0.82161003  0.51855216  0.82891497  1
