# generated using pymatgen
data_BaBeH12C2(I3N)2
_symmetry_space_group_name_H-M   'P 1'
_cell_length_a   7.46769909
_cell_length_b   12.58025814
_cell_length_c   9.81222009
_cell_angle_alpha   94.49081567
_cell_angle_beta   90.01265723
_cell_angle_gamma   90.00108637
_symmetry_Int_Tables_number   1
_chemical_formula_structural   BaBeH12C2(I3N)2
_chemical_formula_sum   'Ba2 Be2 H24 C4 I12 N4'
_cell_volume   918.98464101
_cell_formula_units_Z   2
loop_
 _symmetry_equiv_pos_site_id
 _symmetry_equiv_pos_as_xyz
  1  'x, y, z'
loop_
 _atom_site_type_symbol
 _atom_site_label
 _atom_site_symmetry_multiplicity
 _atom_site_fract_x
 _atom_site_fract_y
 _atom_site_fract_z
 _atom_site_occupancy
  C  C0  1  0.36374514  0.26161225  0.37486068  1
  C  C1  1  0.81843435  0.25315166  0.12345539  1
  C  C2  1  0.68145223  0.75325012  0.62349386  1
  C  C3  1  0.13619676  0.76152263  0.87524061  1
  N  N4  1  0.47247860  0.25415943  0.50049736  1
  N  N5  1  0.93829079  0.25232492  0.00242711  1
  N  N6  1  0.56111030  0.75220994  0.50268786  1
  N  N7  1  0.02799531  0.75402840  0.00108815  1
  H  H8  1  0.42929887  0.21713137  0.28823832  1
  H  H9  1  0.22904210  0.23064931  0.39210791  1
  H  H10  1  0.34854850  0.34545378  0.35430931  1
  H  H11  1  0.53126012  0.17979414  0.50408789  1
  H  H12  1  0.57505058  0.31128690  0.50191393  1
  H  H13  1  0.40150498  0.26878352  0.59179909  1
  H  H14  1  0.90047401  0.24832137  0.21542609  1
  H  H15  1  0.72560903  0.18587133  0.10945668  1
  H  H16  1  0.74504407  0.32869213  0.13203849  1
  H  H17  1  0.00840404  0.18154200  0.98670920  1
  H  H18  1  0.03095514  0.31539180  0.01813890  1
  H  H19  1  0.86526915  0.26202993  0.91414811  1
  H  H20  1  0.59980156  0.74835581  0.71562428  1
  H  H21  1  0.77448898  0.68608954  0.60937669  1
  H  H22  1  0.75457612  0.82888767  0.63188383  1
  H  H23  1  0.46832125  0.81519908  0.51850183  1
  H  H24  1  0.49111314  0.68136083  0.48720114  1
  H  H25  1  0.63368030  0.76191254  0.41423023  1
  H  H26  1  0.07001341  0.71735638  0.78864776  1
  H  H27  1  0.15178531  0.84539407  0.85496619  1
  H  H28  1  0.27079059  0.73022495  0.89203857  1
  H  H29  1  0.92529046  0.81106497  0.00265975  1
  H  H30  1  0.96945380  0.67961905  0.00490337  1
  H  H31  1  0.09931467  0.76876169  0.09223475  1
  Be  Be32  1  0.56431662  0.93349963  0.10331924  1
  Be  Be33  1  0.93584191  0.43357507  0.60304115  1
  Ba  Ba34  1  0.10233981  0.00954534  0.39984091  1
  Ba  Ba35  1  0.39792384  0.50945106  0.89969949  1
  I  I36  1  0.45740949  0.25552225  0.86003278  1
  I  I37  1  0.27112673  0.01343866  0.07840878  1
  I  I38  1  0.65312045  0.00860745  0.33461232  1
  I  I39  1  0.95398330  0.23949534  0.61582217  1
  I  I40  1  0.33908348  0.96918409  0.66643566  1
  I  I41  1  0.76843854  0.97486443  0.93007127  1
  I  I42  1  0.54607882  0.73940137  0.11602058  1
  I  I43  1  0.73182519  0.47503276  0.42969145  1
  I  I44  1  0.16069506  0.46931263  0.16607551  1
  I  I45  1  0.04289302  0.75559785  0.36040293  1
  I  I46  1  0.22920286  0.51334813  0.57823516  1
  I  I47  1  0.84695097  0.50876869  0.83419385  1
