# generated using pymatgen
data_CdH6CBr3N
_symmetry_space_group_name_H-M   'P 1'
_cell_length_a   7.65903307
_cell_length_b   11.11500860
_cell_length_c   7.87840828
_cell_angle_alpha   90.00008661
_cell_angle_beta   90.00177975
_cell_angle_gamma   89.99969964
_symmetry_Int_Tables_number   1
_chemical_formula_structural   CdH6CBr3N
_chemical_formula_sum   'Cd4 H24 C4 Br12 N4'
_cell_volume   670.69061734
_cell_formula_units_Z   4
loop_
 _symmetry_equiv_pos_site_id
 _symmetry_equiv_pos_as_xyz
  1  'x, y, z'
loop_
 _atom_site_type_symbol
 _atom_site_label
 _atom_site_symmetry_multiplicity
 _atom_site_fract_x
 _atom_site_fract_y
 _atom_site_fract_z
 _atom_site_occupancy
  C  C0  1  0.41935756  0.24999274  0.39986963  1
  C  C1  1  0.91937788  0.24999277  0.10022168  1
  C  C2  1  0.58065293  0.74999991  0.60017926  1
  C  C3  1  0.08061313  0.75000542  0.89979070  1
  N  N4  1  0.54887175  0.24999640  0.53868935  1
  N  N5  1  0.04885032  0.24999586  0.96137590  1
  N  N6  1  0.45113228  0.74999059  0.46136461  1
  N  N7  1  0.95112862  0.74999292  0.03862653  1
  H  H8  1  0.48936178  0.24998545  0.27908133  1
  H  H9  1  0.33917609  0.16918200  0.41001583  1
  H  H10  1  0.33917381  0.33079261  0.41000787  1
  H  H11  1  0.62825817  0.17479701  0.52939593  1
  H  H12  1  0.62825727  0.32518474  0.52939152  1
  H  H13  1  0.49296321  0.24999716  0.65928040  1
  H  H14  1  0.98944515  0.24998608  0.22099419  1
  H  H15  1  0.83919671  0.16918683  0.09011294  1
  H  H16  1  0.83919849  0.33079569  0.09012078  1
  H  H17  1  0.12822410  0.17479679  0.97063381  1
  H  H18  1  0.12822967  0.32518156  0.97063978  1
  H  H19  1  0.99287941  0.24999867  0.84078883  1
  H  H20  1  0.51065898  0.75000379  0.72096855  1
  H  H21  1  0.66084341  0.66920122  0.59003631  1
  H  H22  1  0.66083210  0.83081292  0.59002536  1
  H  H23  1  0.37172975  0.82518413  0.47066958  1
  H  H24  1  0.37175540  0.67479499  0.47067965  1
  H  H25  1  0.50702416  0.74999573  0.34077451  1
  H  H26  1  0.01056853  0.75000634  0.77901287  1
  H  H27  1  0.16078699  0.83081642  0.90991618  1
  H  H28  1  0.16080449  0.66920623  0.90990435  1
  H  H29  1  0.87173244  0.82518301  0.02935357  1
  H  H30  1  0.87176314  0.67479637  0.02934444  1
  H  H31  1  0.00707514  0.74999940  0.15921599  1
  Cd  Cd32  1  0.50000360  0.00002995  0.99996583  1
  Cd  Cd33  1  0.00008440  0.50001563  0.49985230  1
  Cd  Cd34  1  0.00001092  0.00004356  0.49995034  1
  Cd  Cd35  1  0.50007708  0.50003211  0.00002185  1
  Br  Br36  1  0.48555587  0.25002209  0.95000987  1
  Br  Br37  1  0.19585609  0.00385926  0.17821086  1
  Br  Br38  1  0.69582992  0.00386204  0.32178988  1
  Br  Br39  1  0.98556311  0.25002211  0.55004602  1
  Br  Br40  1  0.30414783  0.99614238  0.67821873  1
  Br  Br41  1  0.80415802  0.99615748  0.82178215  1
  Br  Br42  1  0.51441467  0.75002142  0.05003682  1
  Br  Br43  1  0.69581716  0.49613935  0.32181041  1
  Br  Br44  1  0.19585088  0.49614407  0.17817929  1
  Br  Br45  1  0.01443213  0.75002175  0.44994881  1
  Br  Br46  1  0.30413977  0.50386340  0.67822155  1
  Br  Br47  1  0.80415941  0.50384994  0.82176967  1
