# generated using pymatgen
data_InH6CBr3N
_symmetry_space_group_name_H-M   'P 1'
_cell_length_a   8.10882250
_cell_length_b   11.56824532
_cell_length_c   7.89755514
_cell_angle_alpha   93.32747984
_cell_angle_beta   90.00250438
_cell_angle_gamma   90.00324656
_symmetry_Int_Tables_number   1
_chemical_formula_structural   InH6CBr3N
_chemical_formula_sum   'In4 H24 C4 Br12 N4'
_cell_volume   739.57998829
_cell_formula_units_Z   4
loop_
 _symmetry_equiv_pos_site_id
 _symmetry_equiv_pos_as_xyz
  1  'x, y, z'
loop_
 _atom_site_type_symbol
 _atom_site_label
 _atom_site_symmetry_multiplicity
 _atom_site_fract_x
 _atom_site_fract_y
 _atom_site_fract_z
 _atom_site_occupancy
  C  C0  1  0.40012086  0.25105484  0.41207269  1
  C  C1  1  0.89981953  0.24900131  0.08808507  1
  C  C2  1  0.60007474  0.74905500  0.58782133  1
  C  C3  1  0.09988645  0.75089721  0.91201294  1
  N  N4  1  0.54731169  0.25339490  0.52358194  1
  N  N5  1  0.04699813  0.24659193  0.97657419  1
  N  N6  1  0.45291641  0.74671257  0.47626746  1
  N  N7  1  0.95272312  0.75314855  0.02353969  1
  H  H8  1  0.44118521  0.24845401  0.27993042  1
  H  H9  1  0.32724647  0.17428107  0.43556678  1
  H  H10  1  0.32829766  0.32972066  0.44060708  1
  H  H11  1  0.61863003  0.17963579  0.49802337  1
  H  H12  1  0.61890298  0.32507300  0.50086216  1
  H  H13  1  0.51584146  0.25756111  0.65202228  1
  H  H14  1  0.94090078  0.25168368  0.22023119  1
  H  H15  1  0.82799380  0.17031019  0.05965730  1
  H  H16  1  0.82694430  0.32574588  0.06449605  1
  H  H17  1  0.11853685  0.17491201  0.99935685  1
  H  H18  1  0.11836517  0.32034529  0.00207330  1
  H  H19  1  0.01552884  0.24239888  0.84812748  1
  H  H20  1  0.55896613  0.75162314  0.71994811  1
  H  H21  1  0.67193025  0.67040749  0.55926946  1
  H  H22  1  0.67292526  0.82584759  0.56438165  1
  H  H23  1  0.38156451  0.82045230  0.50183288  1
  H  H24  1  0.38134275  0.67501792  0.49892890  1
  H  H25  1  0.48441216  0.74257716  0.34782984  1
  H  H26  1  0.05878736  0.74832960  0.77987784  1
  H  H27  1  0.17167572  0.82958569  0.94059075  1
  H  H28  1  0.17280855  0.67414347  0.93543462  1
  H  H29  1  0.88104095  0.82476869  0.00085211  1
  H  H30  1  0.88148305  0.67933476  0.99797052  1
  H  H31  1  0.98421699  0.75731773  0.15198057  1
  In  In32  1  0.50000233  0.00011087  0.00001091  1
  In  In33  1  0.00016852  0.50011400  0.50028082  1
  In  In34  1  0.00006258  0.00005140  0.50005472  1
  In  In35  1  0.49995632  0.50004600  0.00010571  1
  Br  Br36  1  0.47674545  0.26535378  0.94094834  1
  Br  Br37  1  0.16017676  0.01667708  0.19806833  1
  Br  Br38  1  0.70397097  0.00437318  0.33836910  1
  Br  Br39  1  0.97701932  0.23474785  0.55912780  1
  Br  Br40  1  0.29619180  0.99567786  0.66166660  1
  Br  Br41  1  0.83998570  0.98334148  0.80200247  1
  Br  Br42  1  0.52307716  0.73476179  0.05890143  1
  Br  Br43  1  0.66019268  0.48345327  0.30196686  1
  Br  Br44  1  0.20386607  0.49569712  0.16172548  1
  Br  Br45  1  0.02318455  0.76534847  0.44090296  1
  Br  Br46  1  0.34000182  0.51670814  0.69802156  1
  Br  Br47  1  0.79604353  0.50423256  0.83833670  1
