# generated using pymatgen
data_SnH6CBr3N
_symmetry_space_group_name_H-M   'P 1'
_cell_length_a   8.17123658
_cell_length_b   11.63219008
_cell_length_c   7.93201243
_cell_angle_alpha   90.00001371
_cell_angle_beta   90.00543060
_cell_angle_gamma   90.00119849
_symmetry_Int_Tables_number   1
_chemical_formula_structural   SnH6CBr3N
_chemical_formula_sum   'Sn4 H24 C4 Br12 N4'
_cell_volume   753.93283705
_cell_formula_units_Z   4
loop_
 _symmetry_equiv_pos_site_id
 _symmetry_equiv_pos_as_xyz
  1  'x, y, z'
loop_
 _atom_site_type_symbol
 _atom_site_label
 _atom_site_symmetry_multiplicity
 _atom_site_fract_x
 _atom_site_fract_y
 _atom_site_fract_z
 _atom_site_occupancy
  C  C0  1  0.39708441  0.24999818  0.41431110  1
  C  C1  1  0.89787231  0.24999548  0.08638990  1
  C  C2  1  0.60291111  0.75000748  0.58569588  1
  C  C3  1  0.10211454  0.75000682  0.91361509  1
  N  N4  1  0.54386145  0.25002471  0.52419412  1
  N  N5  1  0.04423396  0.25002186  0.97595576  1
  N  N6  1  0.45613861  0.74997779  0.47580598  1
  N  N7  1  0.95578807  0.74997731  0.02409862  1
  H  H8  1  0.43712404  0.25000817  0.28272332  1
  H  H9  1  0.32553416  0.17278445  0.44045567  1
  H  H10  1  0.32552761  0.32723715  0.44045868  1
  H  H11  1  0.61464475  0.17770560  0.49916965  1
  H  H12  1  0.61463847  0.32230215  0.49917299  1
  H  H13  1  0.51344530  0.25000828  0.65199738  1
  H  H14  1  0.93845930  0.25000462  0.21782027  1
  H  H15  1  0.82622362  0.17277583  0.06056893  1
  H  H16  1  0.82621377  0.32723814  0.06056874  1
  H  H17  1  0.11508969  0.17770752  0.00071576  1
  H  H18  1  0.11508245  0.32229992  0.00071467  1
  H  H19  1  0.01335375  0.25000741  0.84824463  1
  H  H20  1  0.56286502  0.74999730  0.71728166  1
  H  H21  1  0.67447143  0.67276929  0.55955312  1
  H  H22  1  0.67445997  0.82722199  0.55955435  1
  H  H23  1  0.38535172  0.82229564  0.50082643  1
  H  H24  1  0.38536304  0.67769918  0.50082523  1
  H  H25  1  0.48656023  0.74999400  0.34800371  1
  H  H26  1  0.06155144  0.74999651  0.78221223  1
  H  H27  1  0.17377941  0.82722809  0.93946083  1
  H  H28  1  0.17378941  0.67276013  0.93946221  1
  H  H29  1  0.88489969  0.82229980  0.99930212  1
  H  H30  1  0.88491004  0.67769486  0.99930458  1
  H  H31  1  0.98663961  0.74999408  0.15175484  1
  Sn  Sn32  1  0.50000749  0.00000384  0.99999637  1
  Sn  Sn33  1  0.00000294  0.50000351  0.50000679  1
  Sn  Sn34  1  0.00000271  0.00000451  0.49999971  1
  Sn  Sn35  1  0.50000404  0.50000400  0.00000513  1
  Br  Br36  1  0.47437598  0.25000115  0.94103737  1
  Br  Br37  1  0.18448101  0.01430814  0.17962347  1
  Br  Br38  1  0.68443141  0.01442316  0.32039339  1
  Br  Br39  1  0.97403902  0.25000140  0.55930417  1
  Br  Br40  1  0.31557264  0.98558082  0.67961306  1
  Br  Br41  1  0.81551849  0.98569514  0.82039210  1
  Br  Br42  1  0.52563563  0.75000130  0.05896707  1
  Br  Br43  1  0.68443387  0.48558521  0.32039050  1
  Br  Br44  1  0.18448518  0.48569813  0.17962682  1
  Br  Br45  1  0.02596682  0.75000144  0.44071527  1
  Br  Br46  1  0.31556812  0.51442167  0.67961827  1
  Br  Br47  1  0.81551600  0.51430512  0.82038864  1
