# generated using pymatgen
data_BaH6CBr3N
_symmetry_space_group_name_H-M   'P 1'
_cell_length_a   8.72810298
_cell_length_b   12.32565367
_cell_length_c   8.14671867
_cell_angle_alpha   89.99956047
_cell_angle_beta   90.00423999
_cell_angle_gamma   90.00158696
_symmetry_Int_Tables_number   1
_chemical_formula_structural   BaH6CBr3N
_chemical_formula_sum   'Ba4 H24 C4 Br12 N4'
_cell_volume   876.42052525
_cell_formula_units_Z   4
loop_
 _symmetry_equiv_pos_site_id
 _symmetry_equiv_pos_as_xyz
  1  'x, y, z'
loop_
 _atom_site_type_symbol
 _atom_site_label
 _atom_site_symmetry_multiplicity
 _atom_site_fract_x
 _atom_site_fract_y
 _atom_site_fract_z
 _atom_site_occupancy
  C  C0  1  0.39087771  0.25000104  0.42159216  1
  C  C1  1  0.89101805  0.24999127  0.07842225  1
  C  C2  1  0.60911448  0.75000493  0.57837502  1
  C  C3  1  0.10897696  0.74999976  0.92157475  1
  N  N4  1  0.53554995  0.24999943  0.51731970  1
  N  N5  1  0.03568987  0.24999201  0.98271626  1
  N  N6  1  0.46444739  0.74999562  0.48263772  1
  N  N7  1  0.96431907  0.74999638  0.01730335  1
  H  H8  1  0.41860404  0.24999975  0.29039034  1
  H  H9  1  0.32592224  0.17683585  0.45234334  1
  H  H10  1  0.32591914  0.32316365  0.45234057  1
  H  H11  1  0.59995578  0.18126030  0.48771176  1
  H  H12  1  0.59995601  0.31876098  0.48772832  1
  H  H13  1  0.51409136  0.24999810  0.64366145  1
  H  H14  1  0.91875245  0.25000120  0.20962872  1
  H  H15  1  0.82606899  0.17682176  0.04767222  1
  H  H16  1  0.82605921  0.32315105  0.04765002  1
  H  H17  1  0.10008998  0.18124633  0.01231812  1
  H  H18  1  0.10009909  0.31874515  0.01232827  1
  H  H19  1  0.01422824  0.24999987  0.85636856  1
  H  H20  1  0.58137525  0.75000327  0.70957457  1
  H  H21  1  0.67407700  0.67684367  0.54763081  1
  H  H22  1  0.67406632  0.82317096  0.54762362  1
  H  H23  1  0.40003558  0.81873524  0.51222561  1
  H  H24  1  0.40004543  0.68123880  0.51224641  1
  H  H25  1  0.48591302  0.74998878  0.35629424  1
  H  H26  1  0.08121504  0.75000888  0.79036973  1
  H  H27  1  0.17394557  0.82315624  0.95232249  1
  H  H28  1  0.17392913  0.67682798  0.95230368  1
  H  H29  1  0.89991346  0.81874326  0.98771019  1
  H  H30  1  0.89991557  0.68124505  0.98772497  1
  H  H31  1  0.98580445  0.75000226  0.14365742  1
  Ba  Ba32  1  0.50000249  0.00000104  0.99995419  1
  Ba  Ba33  1  0.00002506  0.50003303  0.50010746  1
  Ba  Ba34  1  0.99998784  0.00002706  0.49998235  1
  Ba  Ba35  1  0.50001033  0.49998671  0.00011151  1
  Br  Br36  1  0.45501214  0.25000449  0.91701990  1
  Br  Br37  1  0.17104200  0.02807835  0.15941893  1
  Br  Br38  1  0.67099490  0.02815183  0.34055764  1
  Br  Br39  1  0.95509261  0.25001978  0.58300576  1
  Br  Br40  1  0.32898685  0.97185426  0.65937571  1
  Br  Br41  1  0.82899594  0.97192068  0.84057051  1
  Br  Br42  1  0.54497225  0.75000592  0.08293794  1
  Br  Br43  1  0.67099911  0.47192694  0.34072893  1
  Br  Br44  1  0.17102375  0.47190563  0.15952286  1
  Br  Br45  1  0.04488721  0.75002219  0.41702259  1
  Br  Br46  1  0.32901618  0.52816680  0.65951810  1
  Br  Br47  1  0.82899924  0.52804479  0.84069556  1
