# generated using pymatgen
data_H6PtCBr3N
_symmetry_space_group_name_H-M   'P 1'
_cell_length_a   9.08553657
_cell_length_b   8.57894746
_cell_length_c   8.68606733
_cell_angle_alpha   89.99998675
_cell_angle_beta   90.02985997
_cell_angle_gamma   89.99521777
_symmetry_Int_Tables_number   1
_chemical_formula_structural   H6PtCBr3N
_chemical_formula_sum   'H24 Pt4 C4 Br12 N4'
_cell_volume   677.02969824
_cell_formula_units_Z   4
loop_
 _symmetry_equiv_pos_site_id
 _symmetry_equiv_pos_as_xyz
  1  'x, y, z'
loop_
 _atom_site_type_symbol
 _atom_site_label
 _atom_site_symmetry_multiplicity
 _atom_site_fract_x
 _atom_site_fract_y
 _atom_site_fract_z
 _atom_site_occupancy
  C  C0  1  0.47473603  0.25099631  0.36205109  1
  C  C1  1  0.97485066  0.25107078  0.13799296  1
  C  C2  1  0.52541482  0.74893296  0.63788766  1
  C  C3  1  0.02495868  0.74899712  0.86187052  1
  N  N4  1  0.54874477  0.24976609  0.51449025  1
  N  N5  1  0.04904681  0.24980009  0.98574430  1
  N  N6  1  0.45142793  0.75020252  0.48543723  1
  N  N7  1  0.95082110  0.75023170  0.01415547  1
  H  H8  1  0.55947448  0.25149234  0.27233626  1
  H  H9  1  0.40551378  0.14726026  0.35136499  1
  H  H10  1  0.40589774  0.35517609  0.35286197  1
  H  H11  1  0.61731186  0.15268689  0.52238237  1
  H  H12  1  0.61766589  0.34637872  0.52370716  1
  H  H13  1  0.47432915  0.24934451  0.60475540  1
  H  H14  1  0.05949305  0.25157441  0.22790342  1
  H  H15  1  0.90560953  0.14734442  0.14853845  1
  H  H16  1  0.90602180  0.35526445  0.14700050  1
  H  H17  1  0.11764626  0.15272316  0.97808378  1
  H  H18  1  0.11796932  0.34642550  0.97668517  1
  H  H19  1  0.97480440  0.24933121  0.89524082  1
  H  H20  1  0.44065775  0.74845031  0.72758497  1
  H  H21  1  0.59421916  0.64473115  0.64706796  1
  H  H22  1  0.59465772  0.85264871  0.64859056  1
  H  H23  1  0.38286488  0.84727603  0.47754535  1
  H  H24  1  0.38252514  0.65359229  0.47615929  1
  H  H25  1  0.52585802  0.75065687  0.39517564  1
  H  H26  1  0.94029032  0.74845929  0.77199246  1
  H  H27  1  0.09415798  0.85275601  0.85129475  1
  H  H28  1  0.09383130  0.64483642  0.85282554  1
  H  H29  1  0.88220930  0.84730492  0.02184485  1
  H  H30  1  0.88189731  0.65359328  0.02319870  1
  H  H31  1  0.02510030  0.75068595  0.10460869  1
  Pt  Pt32  1  0.49987856  0.00002471  0.00013537  1
  Pt  Pt33  1  0.00011233  0.49999818  0.50013527  1
  Pt  Pt34  1  0.00012425  0.99998881  0.50013800  1
  Pt  Pt35  1  0.49988908  0.50001516  0.00014557  1
  Br  Br36  1  0.41908228  0.25003774  0.89153562  1
  Br  Br37  1  0.26079962  0.97541738  0.12928582  1
  Br  Br38  1  0.76091557  0.97565984  0.37095806  1
  Br  Br39  1  0.91948917  0.25000608  0.60883445  1
  Br  Br40  1  0.23936147  0.02429550  0.62926842  1
  Br  Br41  1  0.73892657  0.02464315  0.87092785  1
  Br  Br42  1  0.58074615  0.75000986  0.10869814  1
  Br  Br43  1  0.76083429  0.52448012  0.37120866  1
  Br  Br44  1  0.26074652  0.52477834  0.12903902  1
  Br  Br45  1  0.08069090  0.74997963  0.39139632  1
  Br  Br46  1  0.23941212  0.47552696  0.62901010  1
  Br  Br47  1  0.73900759  0.47522607  0.87120143  1
