# generated using pymatgen
data_H6AuCBr3N
_symmetry_space_group_name_H-M   'P 1'
_cell_length_a   7.49893765
_cell_length_b   10.99876919
_cell_length_c   8.40679731
_cell_angle_alpha   92.83807172
_cell_angle_beta   89.99298122
_cell_angle_gamma   90.00258273
_symmetry_Int_Tables_number   1
_chemical_formula_structural   H6AuCBr3N
_chemical_formula_sum   'H24 Au4 C4 Br12 N4'
_cell_volume   692.53447301
_cell_formula_units_Z   4
loop_
 _symmetry_equiv_pos_site_id
 _symmetry_equiv_pos_as_xyz
  1  'x, y, z'
loop_
 _atom_site_type_symbol
 _atom_site_label
 _atom_site_symmetry_multiplicity
 _atom_site_fract_x
 _atom_site_fract_y
 _atom_site_fract_z
 _atom_site_occupancy
  C  C0  1  0.41794552  0.24588766  0.38681912  1
  C  C1  1  0.91783027  0.25415951  0.11313349  1
  C  C2  1  0.58204355  0.75412081  0.61319336  1
  C  C3  1  0.08217241  0.74584360  0.88688656  1
  N  N4  1  0.52458549  0.25623811  0.53550837  1
  N  N5  1  0.02452160  0.24374742  0.96445457  1
  N  N6  1  0.47541446  0.74376910  0.46449799  1
  N  N7  1  0.97549041  0.75624859  0.03557130  1
  H  H8  1  0.50936936  0.24099299  0.28543196  1
  H  H9  1  0.33749020  0.16316702  0.38752932  1
  H  H10  1  0.33291737  0.32635249  0.38172142  1
  H  H11  1  0.61004022  0.18272992  0.54174508  1
  H  H12  1  0.60215258  0.33456316  0.53626362  1
  H  H13  1  0.44609609  0.26065089  0.63692754  1
  H  H14  1  0.00917638  0.25902097  0.21453781  1
  H  H15  1  0.83273623  0.17369359  0.11820091  1
  H  H16  1  0.83741670  0.33687987  0.11239474  1
  H  H17  1  0.10206640  0.16543808  0.96373495  1
  H  H18  1  0.11006457  0.31727620  0.95825526  1
  H  H19  1  0.94612918  0.23938027  0.86303628  1
  H  H20  1  0.49061253  0.75900687  0.71457522  1
  H  H21  1  0.66708169  0.67366118  0.61829165  1
  H  H22  1  0.66248846  0.83684688  0.61249243  1
  H  H23  1  0.38995765  0.81727544  0.45825712  1
  H  H24  1  0.39785005  0.66544192  0.46373820  1
  H  H25  1  0.55391122  0.73935766  0.36308368  1
  H  H26  1  0.99081727  0.74098086  0.78548742  1
  H  H27  1  0.16725686  0.82631486  0.88181768  1
  H  H28  1  0.16259408  0.66312774  0.88761689  1
  H  H29  1  0.89793684  0.83455129  0.03630034  1
  H  H30  1  0.88995946  0.68271278  0.04177611  1
  H  H31  1  0.05389288  0.76061757  0.13698608  1
  Au  Au32  1  0.50000705  0.00000347  1.00000012  1
  Au  Au33  1  0.99999174  0.50000236  0.49999934  1
  Au  Au34  1  0.99999746  0.00000192  0.50000443  1
  Au  Au35  1  0.50000285  0.50000079  0.99999762  1
  Br  Br36  1  0.47678292  0.27316200  0.94639166  1
  Br  Br37  1  0.21636526  0.00580653  0.14280686  1
  Br  Br38  1  0.71890014  0.99738265  0.34070622  1
  Br  Br39  1  0.97680810  0.22684861  0.55355757  1
  Br  Br40  1  0.28109554  0.00262105  0.65930164  1
  Br  Br41  1  0.78365381  0.99419458  0.85720334  1
  Br  Br42  1  0.52322714  0.72683907  0.05360835  1
  Br  Br43  1  0.71639259  0.49424601  0.35717965  1
  Br  Br44  1  0.21887947  0.50259583  0.15931967  1
  Br  Br45  1  0.02318591  0.77315463  0.44645776  1
  Br  Br46  1  0.28359042  0.50575963  0.64282015  1
  Br  Br47  1  0.78112532  0.49740384  0.84067572  1
