# generated using pymatgen
data_HgH6CBr3N
_symmetry_space_group_name_H-M   'P 1'
_cell_length_a   6.96451498
_cell_length_b   12.40671014
_cell_length_c   8.35462300
_cell_angle_alpha   90.00022208
_cell_angle_beta   90.00128714
_cell_angle_gamma   89.99900676
_symmetry_Int_Tables_number   1
_chemical_formula_structural   HgH6CBr3N
_chemical_formula_sum   'Hg4 H24 C4 Br12 N4'
_cell_volume   721.89555792
_cell_formula_units_Z   4
loop_
 _symmetry_equiv_pos_site_id
 _symmetry_equiv_pos_as_xyz
  1  'x, y, z'
loop_
 _atom_site_type_symbol
 _atom_site_label
 _atom_site_symmetry_multiplicity
 _atom_site_fract_x
 _atom_site_fract_y
 _atom_site_fract_z
 _atom_site_occupancy
  C  C0  1  0.42351442  0.24884707  0.35125543  1
  C  C1  1  0.92346908  0.24881925  0.14876948  1
  C  C2  1  0.57647878  0.74884444  0.64876315  1
  C  C3  1  0.07652723  0.74881994  0.85123751  1
  N  N4  1  0.48543469  0.26354445  0.51981132  1
  N  N5  1  0.98534361  0.26331487  0.98016213  1
  N  N6  1  0.51458321  0.76355380  0.48020678  1
  N  N7  1  0.01467276  0.76332739  0.01984549  1
  H  H8  1  0.54877333  0.25417472  0.27312501  1
  H  H9  1  0.35616759  0.16969608  0.33891666  1
  H  H10  1  0.32316125  0.31368790  0.32119776  1
  H  H11  1  0.60110110  0.21479691  0.54920554  1
  H  H12  1  0.52687528  0.34284699  0.53793282  1
  H  H13  1  0.37505805  0.24671500  0.59927277  1
  H  H14  1  0.04886684  0.25371455  0.22680912  1
  H  H15  1  0.85535026  0.16987083  0.16113078  1
  H  H16  1  0.82379856  0.31396293  0.17892990  1
  H  H17  1  0.10071096  0.21437176  0.95077857  1
  H  H18  1  0.02715357  0.34255319  0.96189947  1
  H  H19  1  0.87480668  0.24662098  0.90078820  1
  H  H20  1  0.45122628  0.75415680  0.72689464  1
  H  H21  1  0.64384866  0.66969177  0.66108183  1
  H  H22  1  0.67682371  0.81368511  0.67883214  1
  H  H23  1  0.47307753  0.84285548  0.46211676  1
  H  H24  1  0.39890114  0.71479194  0.45080122  1
  H  H25  1  0.62492916  0.74674848  0.40075068  1
  H  H26  1  0.95113271  0.75369730  0.77319720  1
  H  H27  1  0.17618390  0.81396450  0.82106459  1
  H  H28  1  0.14467103  0.66987106  0.83889529  1
  H  H29  1  0.97280818  0.84256591  0.03808059  1
  H  H30  1  0.89929485  0.71437358  0.04923982  1
  H  H31  1  0.12518572  0.74665576  0.09921407  1
  Hg  Hg32  1  0.55229630  0.94887829  0.05472326  1
  Hg  Hg33  1  0.94774268  0.44896978  0.55508242  1
  Hg  Hg34  1  0.05230522  0.94896661  0.44487880  1
  Hg  Hg35  1  0.44775504  0.44887958  0.94533777  1
  Br  Br36  1  0.47966959  0.23608128  0.91366681  1
  Br  Br37  1  0.20551085  0.01274938  0.13645500  1
  Br  Br38  1  0.70552895  0.01277497  0.36312833  1
  Br  Br39  1  0.97955947  0.23612430  0.58629618  1
  Br  Br40  1  0.30895366  0.99850026  0.64972360  1
  Br  Br41  1  0.80892066  0.99839156  0.84988458  1
  Br  Br42  1  0.52031983  0.73608410  0.08635458  1
  Br  Br43  1  0.69104556  0.49850323  0.35028442  1
  Br  Br44  1  0.19107948  0.49839397  0.15012801  1
  Br  Br45  1  0.02042660  0.73612533  0.41370452  1
  Br  Br46  1  0.29447961  0.51277068  0.63689994  1
  Br  Br47  1  0.79450015  0.51274422  0.86354166  1
