# generated using pymatgen
data_TlH6CBr3N
_symmetry_space_group_name_H-M   'P 1'
_cell_length_a   8.17125514
_cell_length_b   11.74119133
_cell_length_c   7.97133454
_cell_angle_alpha   93.05948773
_cell_angle_beta   90.00259909
_cell_angle_gamma   89.99016131
_symmetry_Int_Tables_number   1
_chemical_formula_structural   TlH6CBr3N
_chemical_formula_sum   'Tl4 H24 C4 Br12 N4'
_cell_volume   763.68191429
_cell_formula_units_Z   4
loop_
 _symmetry_equiv_pos_site_id
 _symmetry_equiv_pos_as_xyz
  1  'x, y, z'
loop_
 _atom_site_type_symbol
 _atom_site_label
 _atom_site_symmetry_multiplicity
 _atom_site_fract_x
 _atom_site_fract_y
 _atom_site_fract_z
 _atom_site_occupancy
  C  C0  1  0.39532906  0.25081362  0.41043244  1
  C  C1  1  0.89581918  0.24934666  0.09001771  1
  C  C2  1  0.60468433  0.74919676  0.58951528  1
  C  C3  1  0.10414648  0.75066865  0.91001810  1
  N  N4  1  0.54098314  0.25246679  0.52153964  1
  N  N5  1  0.04122596  0.24756256  0.97858085  1
  N  N6  1  0.45901630  0.74749680  0.47842489  1
  N  N7  1  0.95875982  0.75245892  0.02148292  1
  H  H8  1  0.43663666  0.24873790  0.27966563  1
  H  H9  1  0.32270350  0.17509293  0.43310971  1
  H  H10  1  0.32422538  0.32832224  0.43868277  1
  H  H11  1  0.61152112  0.17962064  0.49676079  1
  H  H12  1  0.61244146  0.32311112  0.49903013  1
  H  H13  1  0.50938929  0.25631304  0.64875979  1
  H  H14  1  0.93742709  0.25145427  0.22068976  1
  H  H15  1  0.82459858  0.17187293  0.06201834  1
  H  H16  1  0.82319402  0.32510591  0.06745137  1
  H  H17  1  0.11267882  0.17687790  0.00098367  1
  H  H18  1  0.11185790  0.32036806  0.00316822  1
  H  H19  1  0.00936904  0.24370039  0.85142705  1
  H  H20  1  0.56339309  0.75128987  0.72028788  1
  H  H21  1  0.67581393  0.67169718  0.56128435  1
  H  H22  1  0.67727684  0.82492513  0.56679601  1
  H  H23  1  0.38844842  0.82032865  0.50319090  1
  H  H24  1  0.38759361  0.67684024  0.50096588  1
  H  H25  1  0.49059539  0.74364194  0.35120032  1
  H  H26  1  0.06251294  0.74856034  0.77935460  1
  H  H27  1  0.17537467  0.82814151  0.93799936  1
  H  H28  1  0.17677423  0.67490804  0.93257222  1
  H  H29  1  0.88730395  0.82314354  0.99908870  1
  H  H30  1  0.88812253  0.67965481  0.99691086  1
  H  H31  1  0.99063666  0.75632378  0.14863132  1
  Tl  Tl32  1  0.49997951  0.00000821  0.00005064  1
  Tl  Tl33  1  0.00002035  0.50000144  0.50002156  1
  Tl  Tl34  1  0.00001702  0.00000278  0.50004611  1
  Tl  Tl35  1  0.50001882  0.49999805  0.00000715  1
  Br  Br36  1  0.47125627  0.26179978  0.93564664  1
  Br  Br37  1  0.15759299  0.01851364  0.18824172  1
  Br  Br38  1  0.69315934  0.00568346  0.34335461  1
  Br  Br39  1  0.97102502  0.23819389  0.56459527  1
  Br  Br40  1  0.30690275  0.99431541  0.65665339  1
  Br  Br41  1  0.84237391  0.98149096  0.81179716  1
  Br  Br42  1  0.52874360  0.73820284  0.06432387  1
  Br  Br43  1  0.65755100  0.48142871  0.31181100  1
  Br  Br44  1  0.19316273  0.49440019  0.15663203  1
  Br  Br45  1  0.02900151  0.76181221  0.43545747  1
  Br  Br46  1  0.34248097  0.51857458  0.68820852  1
  Br  Br47  1  0.80688459  0.50560896  0.84340801  1
