# generated using pymatgen
data_H6PbCBr3N
_symmetry_space_group_name_H-M   'P 1'
_cell_length_a   8.24316213
_cell_length_b   11.79025317
_cell_length_c   7.98948758
_cell_angle_alpha   90.00045511
_cell_angle_beta   90.00809357
_cell_angle_gamma   89.99927843
_symmetry_Int_Tables_number   1
_chemical_formula_structural   H6PbCBr3N
_chemical_formula_sum   'H24 Pb4 C4 Br12 N4'
_cell_volume   776.49004815
_cell_formula_units_Z   4
loop_
 _symmetry_equiv_pos_site_id
 _symmetry_equiv_pos_as_xyz
  1  'x, y, z'
loop_
 _atom_site_type_symbol
 _atom_site_label
 _atom_site_symmetry_multiplicity
 _atom_site_fract_x
 _atom_site_fract_y
 _atom_site_fract_z
 _atom_site_occupancy
  C  C0  1  0.39324302  0.25013439  0.41305594  1
  C  C1  1  0.89450826  0.25011415  0.08820430  1
  C  C2  1  0.60675415  0.74986936  0.58695859  1
  C  C3  1  0.10549905  0.74988608  0.91181003  1
  N  N4  1  0.53846884  0.25003397  0.52271095  1
  N  N5  1  0.03900834  0.25002740  0.97758544  1
  N  N6  1  0.46152742  0.74996977  0.47730499  1
  N  N7  1  0.96100027  0.74996964  0.02243105  1
  H  H8  1  0.43329228  0.25015927  0.28242809  1
  H  H9  1  0.32213391  0.17388674  0.43861469  1
  H  H10  1  0.32228789  0.32643648  0.43872132  1
  H  H11  1  0.60847706  0.17855693  0.49797718  1
  H  H12  1  0.60860918  0.32145729  0.49805168  1
  H  H13  1  0.50781038  0.25002220  0.64952147  1
  H  H14  1  0.93550172  0.25013682  0.21855244  1
  H  H15  1  0.82324582  0.17385057  0.06320207  1
  H  H16  1  0.82337171  0.32642021  0.06310789  1
  H  H17  1  0.10915332  0.17855578  0.00186308  1
  H  H18  1  0.10926620  0.32145461  0.00179845  1
  H  H19  1  0.00756424  0.25001676  0.85095067  1
  H  H20  1  0.56670558  0.74984660  0.71758708  1
  H  H21  1  0.67770795  0.67356661  0.56129501  1
  H  H22  1  0.67786423  0.82611628  0.56139851  1
  H  H23  1  0.39151971  0.82144647  0.50203942  1
  H  H24  1  0.39138770  0.67854594  0.50196454  1
  H  H25  1  0.49218536  0.74998221  0.35049406  1
  H  H26  1  0.06450420  0.74986555  0.78146268  1
  H  H27  1  0.17676186  0.82614889  0.93681589  1
  H  H28  1  0.17663528  0.67357937  0.93690231  1
  H  H29  1  0.89085243  0.82144030  0.99815588  1
  H  H30  1  0.89074425  0.67854168  0.99821732  1
  H  H31  1  0.99244572  0.74998000  0.14906548  1
  Pb  Pb32  1  0.50000097  0.00000853  0.00000916  1
  Pb  Pb33  1  0.99998843  0.50000119  0.49998806  1
  Pb  Pb34  1  0.00000088  0.00000213  0.50001351  1
  Pb  Pb35  1  0.49999690  0.50001105  0.99998626  1
  Br  Br36  1  0.46782042  0.25001247  0.93554927  1
  Br  Br37  1  0.17758337  0.01637200  0.17229698  1
  Br  Br38  1  0.67751416  0.01657864  0.32773268  1
  Br  Br39  1  0.96730994  0.25000264  0.56502570  1
  Br  Br40  1  0.32249754  0.98342931  0.67228317  1
  Br  Br41  1  0.82242368  0.98362475  0.82772165  1
  Br  Br42  1  0.53218321  0.75000868  0.06446359  1
  Br  Br43  1  0.67753908  0.48343498  0.32767293  1
  Br  Br44  1  0.17761191  0.48365531  0.17232530  1
  Br  Br45  1  0.03268733  0.74999895  0.43499176  1
  Br  Br46  1  0.32244497  0.51657014  0.67231606  1
  Br  Br47  1  0.82238364  0.51634918  0.82767204  1
