# generated using pymatgen
data_BeH12PbC2(Br3N)2
_symmetry_space_group_name_H-M   'P 1'
_cell_length_a   8.26995207
_cell_length_b   11.60683872
_cell_length_c   7.86514435
_cell_angle_alpha   89.19112481
_cell_angle_beta   89.81051237
_cell_angle_gamma   89.35280780
_symmetry_Int_Tables_number   1
_chemical_formula_structural   BeH12PbC2(Br3N)2
_chemical_formula_sum   'Be2 H24 Pb2 C4 Br12 N4'
_cell_volume   754.83234429
_cell_formula_units_Z   2
loop_
 _symmetry_equiv_pos_site_id
 _symmetry_equiv_pos_as_xyz
  1  'x, y, z'
loop_
 _atom_site_type_symbol
 _atom_site_label
 _atom_site_symmetry_multiplicity
 _atom_site_fract_x
 _atom_site_fract_y
 _atom_site_fract_z
 _atom_site_occupancy
  C  C0  1  0.42249395  0.25297694  0.43478607  1
  C  C1  1  0.92374525  0.24865510  0.07631907  1
  C  C2  1  0.58351827  0.75005613  0.57337010  1
  C  C3  1  0.07762867  0.74769249  0.92567985  1
  N  N4  1  0.57511459  0.24586912  0.53364291  1
  N  N5  1  0.07374629  0.25043295  0.97169309  1
  N  N6  1  0.42815299  0.75253166  0.47877919  1
  N  N7  1  0.92065868  0.74873283  0.01664217  1
  H  H8  1  0.45211163  0.25297222  0.29890323  1
  H  H9  1  0.35031070  0.17721509  0.46604388  1
  H  H10  1  0.35567883  0.33113939  0.46933743  1
  H  H11  1  0.63882934  0.17131977  0.49977410  1
  H  H12  1  0.64965804  0.31500415  0.50766968  1
  H  H13  1  0.55309249  0.24395182  0.66482315  1
  H  H14  1  0.95700861  0.24920440  0.21089087  1
  H  H15  1  0.85577272  0.17129739  0.04682264  1
  H  H16  1  0.85263018  0.32585757  0.04459447  1
  H  H17  1  0.14830658  0.18043124  0.00053201  1
  H  H18  1  0.13893504  0.32388832  0.99554839  1
  H  H19  1  0.04821718  0.24956075  0.84117025  1
  H  H20  1  0.55588793  0.74997814  0.70940700  1
  H  H21  1  0.65028407  0.67164371  0.54064953  1
  H  H22  1  0.65167410  0.82708639  0.53864490  1
  H  H23  1  0.36093371  0.82426958  0.51301528  1
  H  H24  1  0.36155080  0.67914956  0.51077941  1
  H  H25  1  0.44624116  0.75661978  0.34777434  1
  H  H26  1  0.05446329  0.74258627  0.78911508  1
  H  H27  1  0.13926068  0.82790916  0.95403597  1
  H  H28  1  0.14935222  0.67279095  0.96706608  1
  H  H29  1  0.85411038  0.82206728  0.97911094  1
  H  H30  1  0.85661203  0.67500436  0.98353038  1
  H  H31  1  0.93633385  0.75048139  0.14769628  1
  Be  Be32  1  0.38181895  0.93416123  0.98798665  1
  Be  Be33  1  0.96905624  0.55174680  0.34667731  1
  Pb  Pb34  1  0.98396302  0.01137750  0.53208941  1
  Pb  Pb35  1  0.50790680  0.49554735  0.97004474  1
  Br  Br36  1  0.49438734  0.25532679  0.94984423  1
  Br  Br37  1  0.24245107  0.01238044  0.17552893  1
  Br  Br38  1  0.70778820  0.01640683  0.32842461  1
  Br  Br39  1  0.99291700  0.25090665  0.56102454  1
  Br  Br40  1  0.35310439  0.98352621  0.73373215  1
  Br  Br41  1  0.81183044  0.99110694  0.83419753  1
  Br  Br42  1  0.50888779  0.78288513  0.05735918  1
  Br  Br43  1  0.73290375  0.49236746  0.33009118  1
  Br  Br44  1  0.16476514  0.47909389  0.21979493  1
  Br  Br45  1  0.00662242  0.71919693  0.43755530  1
  Br  Br46  1  0.30860425  0.51851794  0.68394039  1
  Br  Br47  1  0.81070269  0.51715426  0.81415779  1
