# generated using pymatgen
data_BeSnH12C2(I3N)2
_symmetry_space_group_name_H-M   'P 1'
_cell_length_a   7.86145113
_cell_length_b   12.45351876
_cell_length_c   8.98867999
_cell_angle_alpha   91.10765456
_cell_angle_beta   89.82784550
_cell_angle_gamma   90.02406746
_symmetry_Int_Tables_number   1
_chemical_formula_structural   BeSnH12C2(I3N)2
_chemical_formula_sum   'Be2 Sn2 H24 C4 I12 N4'
_cell_volume   879.84783192
_cell_formula_units_Z   2
loop_
 _symmetry_equiv_pos_site_id
 _symmetry_equiv_pos_as_xyz
  1  'x, y, z'
loop_
 _atom_site_type_symbol
 _atom_site_label
 _atom_site_symmetry_multiplicity
 _atom_site_fract_x
 _atom_site_fract_y
 _atom_site_fract_z
 _atom_site_occupancy
  C  C0  1  0.37182089  0.26662218  0.36350514  1
  C  C1  1  0.82962803  0.25780550  0.13144040  1
  C  C2  1  0.66951769  0.75779515  0.63181345  1
  C  C3  1  0.12858454  0.76649882  0.86487302  1
  N  N4  1  0.49720301  0.24595661  0.48273450  1
  N  N5  1  0.97054585  0.24588882  0.02145305  1
  N  N6  1  0.52951890  0.74583820  0.52166431  1
  N  N7  1  0.00287574  0.74636196  0.98469545  1
  H  H8  1  0.42146576  0.23563629  0.25697304  1
  H  H9  1  0.25146549  0.22698858  0.39091271  1
  H  H10  1  0.35059697  0.35322396  0.35754741  1
  H  H11  1  0.54673982  0.16857921  0.47350472  1
  H  H12  1  0.59816980  0.30017013  0.47613950  1
  H  H13  1  0.44604969  0.25509609  0.58966574  1
  H  H14  1  0.88045978  0.24722693  0.24369964  1
  H  H15  1  0.73263334  0.19707742  0.10634025  1
  H  H16  1  0.77682377  0.33872347  0.12242220  1
  H  H17  1  0.02897109  0.17166037  0.02691721  1
  H  H18  1  0.06192275  0.30579968  0.03970211  1
  H  H19  1  0.92868460  0.25276126  0.91180643  1
  H  H20  1  0.61776288  0.74719824  0.74402344  1
  H  H21  1  0.76672280  0.69712221  0.60683075  1
  H  H22  1  0.72241870  0.83873414  0.62288610  1
  H  H23  1  0.43795971  0.80565735  0.53993939  1
  H  H24  1  0.47112108  0.67154566  0.52692116  1
  H  H25  1  0.57220350  0.75287524  0.41208328  1
  H  H26  1  0.07887936  0.73537537  0.75868072  1
  H  H27  1  0.15033108  0.85304174  0.85843794  1
  H  H28  1  0.24862772  0.72667764  0.89199678  1
  H  H29  1  0.90200363  0.80054310  0.97796493  1
  H  H30  1  0.95322649  0.66899044  0.97617611  1
  H  H31  1  0.05381273  0.75584639  0.09139716  1
  Be  Be32  1  0.58769215  0.93161322  0.11001629  1
  Be  Be33  1  0.91221506  0.43172186  0.61055093  1
  Sn  Sn34  1  0.10134093  0.00047425  0.39138759  1
  Sn  Sn35  1  0.39904659  0.50052013  0.88926887  1
  I  I36  1  0.42218763  0.27081565  0.87537006  1
  I  I37  1  0.29661936  0.00805085  0.09049625  1
  I  I38  1  0.68766821  0.00138760  0.34805293  1
  I  I39  1  0.93471061  0.23948035  0.61889278  1
  I  I40  1  0.32656678  0.99051177  0.65046540  1
  I  I41  1  0.77004975  0.98799491  0.91261106  1
  I  I42  1  0.56423337  0.73944800  0.11876608  1
  I  I43  1  0.73023549  0.48811489  0.41379797  1
  I  I44  1  0.17418419  0.49046626  0.14977495  1
  I  I45  1  0.07814473  0.77075754  0.37699204  1
  I  I46  1  0.20333522  0.50770184  0.58939392  1
  I  I47  1  0.81304645  0.50170103  0.84931142  1
