# generated using pymatgen
data_BeHgH12C2(Br3N)2
_symmetry_space_group_name_H-M   'P 1'
_cell_length_a   7.12689891
_cell_length_b   12.38325337
_cell_length_c   7.98287599
_cell_angle_alpha   92.13668323
_cell_angle_beta   90.00317627
_cell_angle_gamma   89.99213380
_symmetry_Int_Tables_number   1
_chemical_formula_structural   BeHgH12C2(Br3N)2
_chemical_formula_sum   'Be2 Hg2 H24 C4 Br12 N4'
_cell_volume   704.03245114
_cell_formula_units_Z   2
loop_
 _symmetry_equiv_pos_site_id
 _symmetry_equiv_pos_as_xyz
  1  'x, y, z'
loop_
 _atom_site_type_symbol
 _atom_site_label
 _atom_site_symmetry_multiplicity
 _atom_site_fract_x
 _atom_site_fract_y
 _atom_site_fract_z
 _atom_site_occupancy
  C  C0  1  0.42198057  0.26940930  0.36602111  1
  C  C1  1  0.88470676  0.23959178  0.14276282  1
  C  C2  1  0.61528688  0.73979976  0.64223836  1
  C  C3  1  0.07787544  0.76960349  0.86541225  1
  N  N4  1  0.58032222  0.23627802  0.47272032  1
  N  N5  1  0.04368854  0.23480147  0.02375085  1
  N  N6  1  0.45611391  0.73494565  0.52342066  1
  N  N7  1  0.91982199  0.73594055  0.97198173  1
  H  H8  1  0.47131542  0.27638662  0.23686672  1
  H  H9  1  0.31336399  0.20720412  0.37053809  1
  H  H10  1  0.36698201  0.34676930  0.41547989  1
  H  H11  1  0.63113749  0.15979943  0.43553968  1
  H  H12  1  0.69129210  0.29042557  0.47102288  1
  H  H13  1  0.54065862  0.23301476  0.59922447  1
  H  H14  1  0.94117334  0.25025342  0.27010536  1
  H  H15  1  0.80644419  0.16368156  0.12999661  1
  H  H16  1  0.79567779  0.30816907  0.11260289  1
  H  H17  1  0.12717969  0.16628470  0.04165475  1
  H  H18  1  0.12827394  0.30242113  0.03977012  1
  H  H19  1  0.00152006  0.23352367  0.89808570  1
  H  H20  1  0.55898755  0.75036727  0.76965099  1
  H  H21  1  0.69375381  0.66395811  0.62928043  1
  H  H22  1  0.70404613  0.80847096  0.61205109  1
  H  H23  1  0.37148469  0.80255529  0.53955399  1
  H  H24  1  0.37272301  0.66641913  0.54144244  1
  H  H25  1  0.49808697  0.73368269  0.39770969  1
  H  H26  1  0.02847749  0.77660522  0.73627598  1
  H  H27  1  0.13223679  0.84705033  0.91510163  1
  H  H28  1  0.18701457  0.70767798  0.86977822  1
  H  H29  1  0.80849500  0.78988256  0.97055509  1
  H  H30  1  0.86944736  0.65941247  0.93455412  1
  H  H31  1  0.95958273  0.73259983  0.09845084  1
  Be  Be32  1  0.45619739  0.06214131  0.89077118  1
  Be  Be33  1  0.04395946  0.56234376  0.39045582  1
  Hg  Hg34  1  0.96222154  0.04562979  0.59692212  1
  Hg  Hg35  1  0.53798201  0.54586540  0.09658299  1
  Br  Br36  1  0.47652938  0.23465051  0.87231894  1
  Br  Br37  1  0.29503678  0.01937189  0.10544295  1
  Br  Br38  1  0.74167530  0.98471325  0.35920029  1
  Br  Br39  1  0.00776651  0.25625823  0.61782267  1
  Br  Br40  1  0.32171238  0.98701388  0.65129673  1
  Br  Br41  1  0.74601065  0.99124608  0.88579783  1
  Br  Br42  1  0.49237238  0.75644223  0.11741237  1
  Br  Br43  1  0.75415661  0.49144871  0.38550794  1
  Br  Br44  1  0.17860217  0.48702764  0.15121994  1
  Br  Br45  1  0.02360867  0.73483788  0.37166121  1
  Br  Br46  1  0.20480296  0.51960997  0.60537077  1
  Br  Br47  1  0.75823846  0.48449256  0.85891306  1
