# generated using pymatgen
data_BeH12PtC2(Br3N)2
_symmetry_space_group_name_H-M   'P 1'
_cell_length_a   6.89071481
_cell_length_b   11.00349762
_cell_length_c   8.82725281
_cell_angle_alpha   95.82562024
_cell_angle_beta   89.98541341
_cell_angle_gamma   90.00897591
_symmetry_Int_Tables_number   1
_chemical_formula_structural   BeH12PtC2(Br3N)2
_chemical_formula_sum   'Be2 H24 Pt2 C4 Br12 N4'
_cell_volume   665.84296635
_cell_formula_units_Z   2
loop_
 _symmetry_equiv_pos_site_id
 _symmetry_equiv_pos_as_xyz
  1  'x, y, z'
loop_
 _atom_site_type_symbol
 _atom_site_label
 _atom_site_symmetry_multiplicity
 _atom_site_fract_x
 _atom_site_fract_y
 _atom_site_fract_z
 _atom_site_occupancy
  C  C0  1  0.34935832  0.24594106  0.35790275  1
  C  C1  1  0.89644950  0.25938414  0.13437312  1
  C  C2  1  0.60355699  0.75961433  0.63439090  1
  C  C3  1  0.15083284  0.74592178  0.85806882  1
  N  N4  1  0.42762284  0.25645793  0.51459243  1
  N  N5  1  0.99188498  0.24838229  0.98319269  1
  N  N6  1  0.50765110  0.74825305  0.48340337  1
  N  N7  1  0.07257897  0.75643087  0.01478705  1
  H  H8  1  0.46905421  0.23082343  0.27699458  1
  H  H9  1  0.24960770  0.16809184  0.34504822  1
  H  H10  1  0.27620348  0.33160421  0.34053245  1
  H  H11  1  0.48526137  0.17468741  0.54140856  1
  H  H12  1  0.53392622  0.32383647  0.52591330  1
  H  H13  1  0.32146426  0.28166001  0.59430820  1
  H  H14  1  0.00649975  0.25275619  0.22216267  1
  H  H15  1  0.79109930  0.18542268  0.13697860  1
  H  H16  1  0.82400459  0.34804101  0.15146569  1
  H  H17  1  0.06329788  0.16590059  0.96044217  1
  H  H18  1  0.09367001  0.31755023  0.97744922  1
  H  H19  1  0.89101393  0.25418523  0.89716239  1
  H  H20  1  0.49389004  0.75292760  0.72246317  1
  H  H21  1  0.70919726  0.68577132  0.63685352  1
  H  H22  1  0.67580152  0.84833804  0.65112892  1
  H  H23  1  0.40567212  0.81738649  0.47774990  1
  H  H24  1  0.43622023  0.66576753  0.46108564  1
  H  H25  1  0.60811961  0.75399974  0.39710494  1
  H  H26  1  0.03107556  0.73086913  0.77721955  1
  H  H27  1  0.22409558  0.83154828  0.84067694  1
  H  H28  1  0.25045345  0.66801977  0.84513273  1
  H  H29  1  0.96639535  0.82386129  0.02618310  1
  H  H30  1  0.01487704  0.67470053  0.04163778  1
  H  H31  1  0.17882703  0.78160047  0.09446058  1
  Be  Be32  1  0.58943123  0.93477013  0.08520895  1
  Be  Be33  1  0.91070413  0.43483263  0.58517611  1
  Pt  Pt34  1  0.97994593  0.00878073  0.47967329  1
  Pt  Pt35  1  0.51999184  0.50876362  0.97968178  1
  Br  Br36  1  0.46988241  0.29447356  0.89532329  1
  Br  Br37  1  0.30682698  0.00611873  0.08226733  1
  Br  Br38  1  0.67423016  0.00702927  0.33192878  1
  Br  Br39  1  0.90749834  0.22184578  0.60597739  1
  Br  Br40  1  0.26589612  0.00630615  0.64304649  1
  Br  Br41  1  0.78492921  0.97576783  0.91549925  1
  Br  Br42  1  0.59248089  0.72177918  0.10611887  1
  Br  Br43  1  0.71542461  0.47594612  0.41546445  1
  Br  Br44  1  0.23390526  0.50620481  0.14301118  1
  Br  Br45  1  0.03005494  0.79448102  0.39541495  1
  Br  Br46  1  0.19343959  0.50608839  0.58237089  1
  Br  Br47  1  0.82571906  0.50715539  0.83185965  1
