# generated using pymatgen
data_HfBeH12C2(Br3N)2
_symmetry_space_group_name_H-M   'P 1'
_cell_length_a   6.78575251
_cell_length_b   12.50890901
_cell_length_c   8.30276443
_cell_angle_alpha   80.97639649
_cell_angle_beta   89.96948846
_cell_angle_gamma   89.80871332
_symmetry_Int_Tables_number   1
_chemical_formula_structural   HfBeH12C2(Br3N)2
_chemical_formula_sum   'Hf2 Be2 H24 C4 Br12 N4'
_cell_volume   696.03214636
_cell_formula_units_Z   2
loop_
 _symmetry_equiv_pos_site_id
 _symmetry_equiv_pos_as_xyz
  1  'x, y, z'
loop_
 _atom_site_type_symbol
 _atom_site_label
 _atom_site_symmetry_multiplicity
 _atom_site_fract_x
 _atom_site_fract_y
 _atom_site_fract_z
 _atom_site_occupancy
  C  C0  1  0.35305978  0.26423320  0.33212589  1
  C  C1  1  0.84577991  0.25779330  0.15411846  1
  C  C2  1  0.65401140  0.75766107  0.65409326  1
  C  C3  1  0.14711864  0.76455088  0.83157954  1
  N  N4  1  0.47193051  0.26452273  0.48151042  1
  N  N5  1  0.00377887  0.25055854  0.03259627  1
  N  N6  1  0.49599798  0.75050115  0.53276367  1
  N  N7  1  0.03066033  0.76456880  0.98236228  1
  H  H8  1  0.45188679  0.26662456  0.22737120  1
  H  H9  1  0.26338086  0.19055634  0.34743570  1
  H  H10  1  0.25759133  0.33599276  0.31605619  1
  H  H11  1  0.56836164  0.19959558  0.50190747  1
  H  H12  1  0.55355450  0.33623847  0.47799994  1
  H  H13  1  0.38315740  0.25760489  0.58467768  1
  H  H14  1  0.91025152  0.27689592  0.26720131  1
  H  H15  1  0.76784323  0.17998793  0.17963505  1
  H  H16  1  0.74356232  0.32286521  0.10530235  1
  H  H17  1  0.09754555  0.18823403  0.07782403  1
  H  H18  1  0.91942944  0.42039916  0.80991871  1
  H  H19  1  0.94054441  0.22313611  0.93309945  1
  H  H20  1  0.58945407  0.77674875  0.76729196  1
  H  H21  1  0.73286478  0.67984336  0.67947644  1
  H  H22  1  0.75546068  0.82271867  0.60516202  1
  H  H23  1  0.57916231  0.92005019  0.31041071  1
  H  H24  1  0.40288118  0.68823905  0.57811223  1
  H  H25  1  0.55944607  0.72301204  0.43321637  1
  H  H26  1  0.04668574  0.76730833  0.72788253  1
  H  H27  1  0.24200091  0.83618536  0.81484765  1
  H  H28  1  0.23732296  0.69074025  0.84554060  1
  H  H29  1  0.94787457  0.83613752  0.97976057  1
  H  H30  1  0.93567602  0.69939601  0.00384931  1
  H  H31  1  0.12127581  0.75782866  0.08433398  1
  Be  Be32  1  0.57916041  0.90917989  0.13771838  1
  Be  Be33  1  0.92010518  0.40930030  0.63734887  1
  Hf  Hf34  1  0.31099487  0.89617699  0.39823693  1
  Hf  Hf35  1  0.18754225  0.39604011  0.89788674  1
  Br  Br36  1  0.42656483  0.23727908  0.88252847  1
  Br  Br37  1  0.27822675  0.98465632  0.09255789  1
  Br  Br38  1  0.99768682  0.00321516  0.44329894  1
  Br  Br39  1  0.95376487  0.23937177  0.63013867  1
  Br  Br40  1  0.46817188  0.99987109  0.60700685  1
  Br  Br41  1  0.78563166  0.99499786  0.97999900  1
  Br  Br42  1  0.54719677  0.73935290  0.12979486  1
  Br  Br43  1  0.71311840  0.49518957  0.47941813  1
  Br  Br44  1  0.02858505  0.49984882  0.10651536  1
  Br  Br45  1  0.07378282  0.73754146  0.38274211  1
  Br  Br46  1  0.22049147  0.48435058  0.59224370  1
  Br  Br47  1  0.49944819  0.50297754  0.94339845  1
