# generated using pymatgen
data_BaBeH12C2(Br3N)2
_symmetry_space_group_name_H-M   'P 1'
_cell_length_a   6.96612652
_cell_length_b   11.88930146
_cell_length_c   9.15677422
_cell_angle_alpha   95.07575400
_cell_angle_beta   90.01251742
_cell_angle_gamma   90.00012816
_symmetry_Int_Tables_number   1
_chemical_formula_structural   BaBeH12C2(Br3N)2
_chemical_formula_sum   'Ba2 Be2 H24 C4 Br12 N4'
_cell_volume   755.41185969
_cell_formula_units_Z   2
loop_
 _symmetry_equiv_pos_site_id
 _symmetry_equiv_pos_as_xyz
  1  'x, y, z'
loop_
 _atom_site_type_symbol
 _atom_site_label
 _atom_site_symmetry_multiplicity
 _atom_site_fract_x
 _atom_site_fract_y
 _atom_site_fract_z
 _atom_site_occupancy
  C  C0  1  0.36483253  0.26393710  0.36824871  1
  C  C1  1  0.81652787  0.25288557  0.12861345  1
  C  C2  1  0.68337043  0.75298085  0.62862164  1
  C  C3  1  0.13510329  0.76384402  0.86859880  1
  N  N4  1  0.47947671  0.25276048  0.50285701  1
  N  N5  1  0.94373787  0.25139119  0.99845682  1
  N  N6  1  0.55560970  0.75129284  0.49871918  1
  N  N7  1  0.02101628  0.75259955  0.00341372  1
  H  H8  1  0.42888905  0.21263325  0.27563664  1
  H  H9  1  0.21648868  0.23845913  0.38738051  1
  H  H10  1  0.35927236  0.35267122  0.34549726  1
  H  H11  1  0.53879071  0.17307372  0.50468893  1
  H  H12  1  0.59145408  0.31175555  0.50640811  1
  H  H13  1  0.40400002  0.26790796  0.60136476  1
  H  H14  1  0.90516193  0.24807094  0.22674888  1
  H  H15  1  0.71594341  0.18227601  0.11325854  1
  H  H16  1  0.73958192  0.33338574  0.13952281  1
  H  H17  1  0.02076246  0.17715674  0.98106474  1
  H  H18  1  0.04115898  0.31914205  0.01575385  1
  H  H19  1  0.86438622  0.26063479  0.90435277  1
  H  H20  1  0.59516648  0.74810046  0.72694013  1
  H  H21  1  0.78415656  0.68248739  0.61311598  1
  H  H22  1  0.76005599  0.83357145  0.63933200  1
  H  H23  1  0.45805406  0.81896239  0.51615276  1
  H  H24  1  0.47869908  0.67699401  0.48155786  1
  H  H25  1  0.63444536  0.76055251  0.40440759  1
  H  H26  1  0.07043543  0.71280297  0.77600574  1
  H  H27  1  0.14094249  0.85263086  0.84612818  1
  H  H28  1  0.28341862  0.73808642  0.88728631  1
  H  H29  1  0.90882542  0.81144605  0.00709349  1
  H  H30  1  0.96206804  0.67284341  0.00550658  1
  H  H31  1  0.09681323  0.76792486  0.10176984  1
  Be  Be32  1  0.55578844  0.93301649  0.10526929  1
  Be  Be33  1  0.94437989  0.43309688  0.60498035  1
  Ba  Ba34  1  0.09385449  0.00831679  0.40093359  1
  Ba  Ba35  1  0.40638915  0.50823310  0.90080258  1
  Br  Br36  1  0.45533157  0.25608375  0.86179753  1
  Br  Br37  1  0.27298419  0.01041842  0.07912961  1
  Br  Br38  1  0.64208673  0.00267078  0.33279444  1
  Br  Br39  1  0.95997146  0.24618030  0.61325999  1
  Br  Br40  1  0.34139286  0.97242310  0.66232382  1
  Br  Br41  1  0.75970851  0.97314302  0.94299695  1
  Br  Br42  1  0.54012590  0.74608423  0.11347721  1
  Br  Br43  1  0.74060678  0.47331371  0.44256806  1
  Br  Br44  1  0.15835013  0.47251966  0.16193899  1
  Br  Br45  1  0.04508844  0.75614703  0.36218029  1
  Br  Br46  1  0.22734767  0.51036537  0.57897177  1
  Br  Br47  1  0.85797225  0.50280416  0.83236850  1
