# generated using pymatgen
data_BeSnH12C2(Br3N)2
_symmetry_space_group_name_H-M   'P 1'
_cell_length_a   8.54866770
_cell_length_b   11.42161233
_cell_length_c   7.70898898
_cell_angle_alpha   89.35382005
_cell_angle_beta   89.16357093
_cell_angle_gamma   88.84815697
_symmetry_Int_Tables_number   1
_chemical_formula_structural   BeSnH12C2(Br3N)2
_chemical_formula_sum   'Be2 Sn2 H24 C4 Br12 N4'
_cell_volume   752.42464827
_cell_formula_units_Z   2
loop_
 _symmetry_equiv_pos_site_id
 _symmetry_equiv_pos_as_xyz
  1  'x, y, z'
loop_
 _atom_site_type_symbol
 _atom_site_label
 _atom_site_symmetry_multiplicity
 _atom_site_fract_x
 _atom_site_fract_y
 _atom_site_fract_z
 _atom_site_occupancy
  C  C0  1  0.47042206  0.25780079  0.46748401  1
  C  C1  1  0.97063101  0.25168438  0.03479893  1
  C  C2  1  0.53805179  0.74892810  0.53590755  1
  C  C3  1  0.03574732  0.74984674  0.96872222  1
  N  N4  1  0.62519268  0.24190440  0.55052508  1
  N  N5  1  0.12635051  0.25732894  0.94699332  1
  N  N6  1  0.37239660  0.75011215  0.47878894  1
  N  N7  1  0.86819633  0.75382824  0.02216855  1
  H  H8  1  0.48785787  0.25876633  0.32646814  1
  H  H9  1  0.39735551  0.18400050  0.50533011  1
  H  H10  1  0.41552862  0.33979611  0.51174497  1
  H  H11  1  0.68011661  0.16576963  0.50535861  1
  H  H12  1  0.69879634  0.31044455  0.52033012  1
  H  H13  1  0.61350317  0.23646738  0.68552557  1
  H  H14  1  0.98625232  0.26035833  0.17466573  1
  H  H15  1  0.91828436  0.16757860  0.00611036  1
  H  H16  1  0.89700808  0.32379379  0.98546688  1
  H  H17  1  0.20348378  0.19450678  0.99623805  1
  H  H18  1  0.17608566  0.33807955  0.96355927  1
  H  H19  1  0.11602804  0.24471137  0.81336498  1
  H  H20  1  0.53844967  0.74773876  0.67785579  1
  H  H21  1  0.59722539  0.66997829  0.48637395  1
  H  H22  1  0.59429673  0.82802195  0.48589133  1
  H  H23  1  0.31317496  0.82282689  0.52796557  1
  H  H24  1  0.31568209  0.67569797  0.52456146  1
  H  H25  1  0.36673564  0.75375982  0.34424525  1
  H  H26  1  0.04246410  0.74783190  0.82680802  1
  H  H27  1  0.09131555  0.82819077  0.01758483  1
  H  H28  1  0.09194828  0.67053224  0.02189422  1
  H  H29  1  0.81394916  0.82952434  0.97153258  1
  H  H30  1  0.81204841  0.68107522  0.97257527  1
  H  H31  1  0.85583136  0.75447153  0.15610510  1
  Be  Be32  1  0.36737591  0.93914493  0.99711259  1
  Be  Be33  1  0.97720703  0.54178914  0.34800084  1
  Sn  Sn34  1  0.98139900  0.99618253  0.52483859  1
  Sn  Sn35  1  0.50810137  0.49104423  0.98550621  1
  Br  Br36  1  0.52833555  0.25471958  0.96827995  1
  Br  Br37  1  0.26758610  0.02948427  0.20362837  1
  Br  Br38  1  0.74541999  0.01533483  0.29762808  1
  Br  Br39  1  0.02442934  0.23049232  0.53860468  1
  Br  Br40  1  0.33023248  0.99153168  0.74237605  1
  Br  Br41  1  0.78141701  0.99455651  0.80013528  1
  Br  Br42  1  0.47556271  0.77777515  0.05356790  1
  Br  Br43  1  0.76052727  0.46989299  0.30454033  1
  Br  Br44  1  0.18791199  0.47688565  0.25042904  1
  Br  Br45  1  0.97537720  0.71055731  0.45124357  1
  Br  Br46  1  0.28905846  0.51361380  0.73074297  1
  Br  Br47  1  0.76967232  0.52171705  0.79071738  1
