# generated using pymatgen
data_BeInH12C2(Br3N)2
_symmetry_space_group_name_H-M   'P 1'
_cell_length_a   8.38321042
_cell_length_b   11.00036175
_cell_length_c   7.95163867
_cell_angle_alpha   88.89586592
_cell_angle_beta   83.32721489
_cell_angle_gamma   88.33940469
_symmetry_Int_Tables_number   1
_chemical_formula_structural   BeInH12C2(Br3N)2
_chemical_formula_sum   'Be2 In2 H24 C4 Br12 N4'
_cell_volume   727.92038581
_cell_formula_units_Z   2
loop_
 _symmetry_equiv_pos_site_id
 _symmetry_equiv_pos_as_xyz
  1  'x, y, z'
loop_
 _atom_site_type_symbol
 _atom_site_label
 _atom_site_symmetry_multiplicity
 _atom_site_fract_x
 _atom_site_fract_y
 _atom_site_fract_z
 _atom_site_occupancy
  C  C0  1  0.43131969  0.25224576  0.42307733  1
  C  C1  1  0.95140316  0.24009769  0.05967163  1
  C  C2  1  0.55791642  0.75717162  0.57269691  1
  C  C3  1  0.05712818  0.75937901  0.95369500  1
  N  N4  1  0.57453140  0.23544389  0.51569224  1
  N  N5  1  0.09986717  0.25629564  0.94054263  1
  N  N6  1  0.42123540  0.76274693  0.46915083  1
  N  N7  1  0.90867145  0.74482194  0.07363399  1
  H  H8  1  0.47055702  0.24870991  0.28719054  1
  H  H9  1  0.34845202  0.17898491  0.45939797  1
  H  H10  1  0.37351662  0.34025930  0.45525371  1
  H  H11  1  0.63402335  0.15330199  0.48228169  1
  H  H12  1  0.65368665  0.30543219  0.48125332  1
  H  H13  1  0.54700783  0.23741087  0.64667424  1
  H  H14  1  0.98536686  0.22669198  0.18778110  1
  H  H15  1  0.88657521  0.16188716  0.02254080  1
  H  H16  1  0.87616631  0.32280772  0.05523667  1
  H  H17  1  0.17301673  0.17869796  0.93409783  1
  H  H18  1  0.16459376  0.32666376  0.98512613  1
  H  H19  1  0.07371114  0.27895806  0.81833131  1
  H  H20  1  0.51155465  0.76703619  0.70609074  1
  H  H21  1  0.62010312  0.66920851  0.55249012  1
  H  H22  1  0.63840084  0.83108774  0.53180457  1
  H  H23  1  0.36365146  0.84706399  0.47867538  1
  H  H24  1  0.33887369  0.69655807  0.51061842  1
  H  H25  1  0.45732227  0.74734104  0.34092213  1
  H  H26  1  0.02312892  0.77243437  0.82545749  1
  H  H27  1  0.12250030  0.83753486  0.99072580  1
  H  H28  1  0.13144808  0.67626707  0.95903579  1
  H  H29  1  0.83887947  0.82445388  0.08349623  1
  H  H30  1  0.83788717  0.67834690  0.03229046  1
  H  H31  1  0.93542973  0.71972229  0.19502430  1
  Be  Be32  1  0.46332162  0.00538918  0.92715742  1
  Be  Be33  1  0.88385034  0.49914853  0.52300200  1
  In  In34  1  0.98232796  0.98425163  0.51279136  1
  In  In35  1  0.47112071  0.49865908  0.94659981  1
  Br  Br36  1  0.54922892  0.26617263  0.94129609  1
  Br  Br37  1  0.32178939  0.01044542  0.16432896  1
  Br  Br38  1  0.74032231  0.99840112  0.30524668  1
  Br  Br39  1  0.99718812  0.31737433  0.54167743  1
  Br  Br40  1  0.32011211  0.01218358  0.72516157  1
  Br  Br41  1  0.71377088  0.97726963  0.85424542  1
  Br  Br42  1  0.49769016  0.71927690  0.05462424  1
  Br  Br43  1  0.71336093  0.49058518  0.33911473  1
  Br  Br44  1  0.22519499  0.46566674  0.17410173  1
  Br  Br45  1  0.01272664  0.67357619  0.46796562  1
  Br  Br46  1  0.31174288  0.51458747  0.69017867  1
  Br  Br47  1  0.78834970  0.53202746  0.80284757  1
