# generated using pymatgen
data_BeCdH12C2(Br3N)2
_symmetry_space_group_name_H-M   'P 1'
_cell_length_a   6.60566384
_cell_length_b   12.18193885
_cell_length_c   8.69572663
_cell_angle_alpha   92.33778955
_cell_angle_beta   89.98377761
_cell_angle_gamma   89.98408297
_symmetry_Int_Tables_number   1
_chemical_formula_structural   BeCdH12C2(Br3N)2
_chemical_formula_sum   'Be2 Cd2 H24 C4 Br12 N4'
_cell_volume   699.16087354
_cell_formula_units_Z   2
loop_
 _symmetry_equiv_pos_site_id
 _symmetry_equiv_pos_as_xyz
  1  'x, y, z'
loop_
 _atom_site_type_symbol
 _atom_site_label
 _atom_site_symmetry_multiplicity
 _atom_site_fract_x
 _atom_site_fract_y
 _atom_site_fract_z
 _atom_site_occupancy
  C  C0  1  0.31573658  0.25530092  0.35021619  1
  C  C1  1  0.81714466  0.25995579  0.14843278  1
  C  C2  1  0.68300678  0.76009150  0.64871372  1
  C  C3  1  0.18427697  0.75524903  0.85049568  1
  N  N4  1  0.43233761  0.25708983  0.49552249  1
  N  N5  1  0.93693998  0.26175895  0.00465932  1
  N  N6  1  0.56243817  0.76173610  0.50534458  1
  N  N7  1  0.06829399  0.75714468  0.99613304  1
  H  H8  1  0.41914354  0.24734513  0.25217088  1
  H  H9  1  0.21273181  0.18509079  0.34937468  1
  H  H10  1  0.23145633  0.33244338  0.34526054  1
  H  H11  1  0.52114269  0.18788066  0.50567413  1
  H  H12  1  0.52700204  0.32585889  0.50191125  1
  H  H13  1  0.33771877  0.25973235  0.59114092  1
  H  H14  1  0.91921741  0.25746794  0.24721800  1
  H  H15  1  0.72049466  0.18715535  0.14274141  1
  H  H16  1  0.72692151  0.33527707  0.15793756  1
  H  H17  1  0.03263041  0.19499658  0.98985498  1
  H  H18  1  0.02564182  0.33258758  0.00572957  1
  H  H19  1  0.84440100  0.26136663  0.90778947  1
  H  H20  1  0.58146884  0.75749095  0.74784991  1
  H  H21  1  0.78001402  0.68740432  0.64270553  1
  H  H22  1  0.77289888  0.83550890  0.65789276  1
  H  H23  1  0.47331122  0.83245290  0.50672071  1
  H  H24  1  0.46709256  0.69483748  0.49086426  1
  H  H25  1  0.65442101  0.76147169  0.40813458  1
  H  H26  1  0.08045001  0.74734764  0.75275505  1
  H  H27  1  0.26859705  0.83233762  0.84526728  1
  H  H28  1  0.28720600  0.68496682  0.84937860  1
  H  H29  1  0.97351200  0.82588804  0.00265716  1
  H  H30  1  0.97974114  0.68791369  0.00672160  1
  H  H31  1  0.16337150  0.75991838  0.09144811  1
  Be  Be32  1  0.60747268  0.93293031  0.12029820  1
  Be  Be33  1  0.89249400  0.43296183  0.61999081  1
  Cd  Cd34  1  0.11322618  0.94151770  0.37192532  1
  Cd  Cd35  1  0.38661867  0.44145680  0.87170944  1
  Br  Br36  1  0.42761634  0.23150782  0.87743185  1
  Br  Br37  1  0.29378053  0.00415263  0.11331452  1
  Br  Br38  1  0.73072298  0.00816894  0.34530324  1
  Br  Br39  1  0.91918692  0.25659961  0.62258897  1
  Br  Br40  1  0.30258734  0.99827591  0.61917024  1
  Br  Br41  1  0.78545536  0.98532845  0.93121644  1
  Br  Br42  1  0.58095653  0.75656189  0.12300917  1
  Br  Br43  1  0.71467766  0.48543854  0.43090839  1
  Br  Br44  1  0.19688884  0.49821157  0.11890516  1
  Br  Br45  1  0.07238280  0.73158341  0.37769518  1
  Br  Br46  1  0.20621687  0.50412213  0.61311926  1
  Br  Br47  1  0.76897909  0.50819315  0.84499366  1
