# generated using pymatgen
data_BeH12PdC2(Br3N)2
_symmetry_space_group_name_H-M   'P 1'
_cell_length_a   6.79137983
_cell_length_b   10.80706277
_cell_length_c   9.11132048
_cell_angle_alpha   95.69931006
_cell_angle_beta   89.97397508
_cell_angle_gamma   90.01373002
_symmetry_Int_Tables_number   1
_chemical_formula_structural   BeH12PdC2(Br3N)2
_chemical_formula_sum   'Be2 H24 Pd2 C4 Br12 N4'
_cell_volume   665.41842397
_cell_formula_units_Z   2
loop_
 _symmetry_equiv_pos_site_id
 _symmetry_equiv_pos_as_xyz
  1  'x, y, z'
loop_
 _atom_site_type_symbol
 _atom_site_label
 _atom_site_symmetry_multiplicity
 _atom_site_fract_x
 _atom_site_fract_y
 _atom_site_fract_z
 _atom_site_occupancy
  C  C0  1  0.33609628  0.25596654  0.36469602  1
  C  C1  1  0.86674881  0.26915791  0.12312461  1
  C  C2  1  0.63291596  0.76932808  0.62329385  1
  C  C3  1  0.16410169  0.75586069  0.86492169  1
  N  N4  1  0.43260018  0.25280190  0.50957333  1
  N  N5  1  0.98031251  0.23957140  0.98537864  1
  N  N6  1  0.51922618  0.73951451  0.48571734  1
  N  N7  1  0.06777546  0.75277429  0.00994318  1
  H  H8  1  0.44538075  0.23618693  0.27747559  1
  H  H9  1  0.22110937  0.18462284  0.35419091  1
  H  H10  1  0.27423162  0.34863717  0.35856216  1
  H  H11  1  0.46856761  0.16306210  0.53033511  1
  H  H12  1  0.55849557  0.30772929  0.51359105  1
  H  H13  1  0.34285771  0.28947172  0.59508949  1
  H  H14  1  0.96113045  0.25647697  0.21757380  1
  H  H15  1  0.73939050  0.20718891  0.12150788  1
  H  H16  1  0.81875240  0.36597922  0.12806928  1
  H  H17  1  0.03134087  0.14892901  0.97593685  1
  H  H18  1  0.10197374  0.29795014  0.98106777  1
  H  H19  1  0.89422712  0.24880137  0.89321873  1
  H  H20  1  0.53871000  0.75659932  0.71789105  1
  H  H21  1  0.76043983  0.70752272  0.62157405  1
  H  H22  1  0.68066300  0.86620343  0.62808193  1
  H  H23  1  0.39753985  0.79784087  0.48143148  1
  H  H24  1  0.46814512  0.64887149  0.47653819  1
  H  H25  1  0.60518738  0.74863538  0.39341145  1
  H  H26  1  0.05467402  0.73612915  0.77786054  1
  H  H27  1  0.22612578  0.84849613  0.85867396  1
  H  H28  1  0.27893799  0.68444897  0.85427799  1
  H  H29  1  0.94182124  0.80761218  0.01405511  1
  H  H30  1  0.03198601  0.66303258  0.03090222  1
  H  H31  1  0.15758752  0.78959715  0.09528974  1
  Be  Be32  1  0.57983486  0.92869956  0.09720634  1
  Be  Be33  1  0.92040720  0.42881702  0.59717633  1
  Pd  Pd34  1  0.99258043  0.00533518  0.47745082  1
  Pd  Pd35  1  0.50740376  0.50529889  0.97742667  1
  Br  Br36  1  0.45200637  0.28949474  0.88403761  1
  Br  Br37  1  0.29410966  0.00794007  0.10558497  1
  Br  Br38  1  0.68642515  0.01012501  0.32732425  1
  Br  Br39  1  0.91030870  0.21787396  0.61753592  1
  Br  Br40  1  0.27801522  0.99798499  0.64000399  1
  Br  Br41  1  0.75941765  0.97000105  0.91923885  1
  Br  Br42  1  0.58959542  0.71777183  0.11772904  1
  Br  Br43  1  0.74119560  0.47027294  0.41921433  1
  Br  Br44  1  0.22169743  0.49780212  0.13989482  1
  Br  Br45  1  0.04798979  0.78950194  0.38424780  1
  Br  Br46  1  0.20631977  0.50788489  0.60569065  1
  Br  Br47  1  0.81366420  0.51027373  0.82727920  1
