# generated using pymatgen
data_YBeH12C2(Br3N)2
_symmetry_space_group_name_H-M   'P 1'
_cell_length_a   8.25224785
_cell_length_b   11.24289515
_cell_length_c   7.96180530
_cell_angle_alpha   91.45087884
_cell_angle_beta   89.75802071
_cell_angle_gamma   89.25433685
_symmetry_Int_Tables_number   1
_chemical_formula_structural   YBeH12C2(Br3N)2
_chemical_formula_sum   'Y2 Be2 H24 C4 Br12 N4'
_cell_volume   738.38256818
_cell_formula_units_Z   2
loop_
 _symmetry_equiv_pos_site_id
 _symmetry_equiv_pos_as_xyz
  1  'x, y, z'
loop_
 _atom_site_type_symbol
 _atom_site_label
 _atom_site_symmetry_multiplicity
 _atom_site_fract_x
 _atom_site_fract_y
 _atom_site_fract_z
 _atom_site_occupancy
  C  C0  1  0.44680328  0.24672921  0.47016307  1
  C  C1  1  0.95379442  0.24017166  0.03692875  1
  C  C2  1  0.55528494  0.75380495  0.55539237  1
  C  C3  1  0.05177323  0.75183508  0.95081810  1
  N  N4  1  0.59693468  0.24030937  0.57249948  1
  N  N5  1  0.11157061  0.22693097  0.94719261  1
  N  N6  1  0.39364798  0.74634481  0.47530681  1
  N  N7  1  0.89378297  0.77913675  0.03437225  1
  H  H8  1  0.48119313  0.24561395  0.33719143  1
  H  H9  1  0.37505306  0.16806112  0.49623143  1
  H  H10  1  0.37902602  0.32800366  0.50482231  1
  H  H11  1  0.66095421  0.16278105  0.53919711  1
  H  H12  1  0.67372256  0.31048984  0.55187974  1
  H  H13  1  0.57233052  0.23910135  0.70091236  1
  H  H14  1  0.97636042  0.24566154  0.17220935  1
  H  H15  1  0.87968287  0.16271680  0.00601565  1
  H  H16  1  0.89395216  0.32182008  0.99591573  1
  H  H17  1  0.16957991  0.14733728  0.97543134  1
  H  H18  1  0.19021326  0.29431741  0.98050839  1
  H  H19  1  0.09521647  0.22972594  0.81732714  1
  H  H20  1  0.53814189  0.76570038  0.69135075  1
  H  H21  1  0.62389516  0.67189051  0.52653580  1
  H  H22  1  0.61796081  0.83093011  0.50643873  1
  H  H23  1  0.32546619  0.82243800  0.50802436  1
  H  H24  1  0.33105390  0.67332189  0.51716616  1
  H  H25  1  0.40400977  0.74059848  0.34470863  1
  H  H26  1  0.03103492  0.74213266  0.81566865  1
  H  H27  1  0.13399875  0.82530132  0.97748510  1
  H  H28  1  0.10124401  0.66866259  0.99886354  1
  H  H29  1  0.84351711  0.85749200  0.98818834  1
  H  H30  1  0.81088362  0.71259255  0.00987391  1
  H  H31  1  0.90496370  0.78926850  0.16353676  1
  Be  Be32  1  0.49726863  0.00109101  0.98609738  1
  Be  Be33  1  0.97729097  0.55509999  0.32061955  1
  Y  Y34  1  0.00014747  0.02660220  0.49233501  1
  Y  Y35  1  0.51542287  0.51115976  0.96538703  1
  Br  Br36  1  0.51027673  0.27167342  1.00015986  1
  Br  Br37  1  0.19281024  0.99503700  0.21619959  1
  Br  Br38  1  0.72186272  0.01548199  0.30503209  1
  Br  Br39  1  0.00834056  0.26513768  0.54383900  1
  Br  Br40  1  0.26233578  0.97624779  0.69365790  1
  Br  Br41  1  0.80407592  0.98485978  0.76591834  1
  Br  Br42  1  0.48935144  0.73987217  0.07464077  1
  Br  Br43  1  0.74549486  0.48199976  0.28319170  1
  Br  Br44  1  0.19101618  0.47753918  0.22214849  1
  Br  Br45  1  0.98632723  0.71967016  0.44872059  1
  Br  Br46  1  0.29035723  0.51455430  0.72262986  1
  Br  Br47  1  0.79059837  0.52283029  0.79156330  1
