# generated using pymatgen
data_SrBeH12C2(Br3N)2
_symmetry_space_group_name_H-M   'P 1'
_cell_length_a   6.96294739
_cell_length_b   11.74477876
_cell_length_c   8.87754732
_cell_angle_alpha   95.06511590
_cell_angle_beta   90.01549188
_cell_angle_gamma   89.99180313
_symmetry_Int_Tables_number   1
_chemical_formula_structural   SrBeH12C2(Br3N)2
_chemical_formula_sum   'Sr2 Be2 H24 C4 Br12 N4'
_cell_volume   723.15549890
_cell_formula_units_Z   2
loop_
 _symmetry_equiv_pos_site_id
 _symmetry_equiv_pos_as_xyz
  1  'x, y, z'
loop_
 _atom_site_type_symbol
 _atom_site_label
 _atom_site_symmetry_multiplicity
 _atom_site_fract_x
 _atom_site_fract_y
 _atom_site_fract_z
 _atom_site_occupancy
  C  C0  1  0.37653240  0.26432066  0.35776802  1
  C  C1  1  0.84741199  0.25154196  0.13595158  1
  C  C2  1  0.65281116  0.75179382  0.63574182  1
  C  C3  1  0.12355318  0.76423897  0.85791955  1
  N  N4  1  0.47823045  0.25170956  0.50200808  1
  N  N5  1  0.96829192  0.25257306  0.99862642  1
  N  N6  1  0.53075229  0.75257296  0.49897775  1
  N  N7  1  0.02228884  0.75158418  0.00228419  1
  H  H8  1  0.45893430  0.22288234  0.26344119  1
  H  H9  1  0.23413941  0.22540796  0.36222100  1
  H  H10  1  0.35628335  0.35513828  0.34360119  1
  H  H11  1  0.52835555  0.16922128  0.50850477  1
  H  H12  1  0.59473855  0.30789381  0.51019110  1
  H  H13  1  0.39421113  0.27067013  0.59788403  1
  H  H14  1  0.94065388  0.25147443  0.23535511  1
  H  H15  1  0.75412581  0.17646005  0.12425919  1
  H  H16  1  0.76222528  0.33005134  0.14690439  1
  H  H17  1  0.05476068  0.18102475  0.98117123  1
  H  H18  1  0.05802455  0.32479727  0.01144592  1
  H  H19  1  0.88384114  0.25695483  0.90312202  1
  H  H20  1  0.56041821  0.75157827  0.73557816  1
  H  H21  1  0.74646732  0.67687481  0.62366170  1
  H  H22  1  0.73759366  0.83045232  0.64626621  1
  H  H23  1  0.44083697  0.82472386  0.51207612  1
  H  H24  1  0.44437342  0.68095180  0.48206729  1
  H  H25  1  0.61423528  0.75691533  0.40299164  1
  H  H26  1  0.04087998  0.72285260  0.76368836  1
  H  H27  1  0.14374033  0.85506420  0.84379464  1
  H  H28  1  0.26597441  0.72529659  0.86212563  1
  H  H29  1  0.90560034  0.80764385  0.01055964  1
  H  H30  1  0.97251583  0.66905010  0.00896891  1
  H  H31  1  0.10649536  0.77069479  0.09805154  1
  Be  Be32  1  0.55179322  0.93153014  0.10510032  1
  Be  Be33  1  0.94824598  0.43164674  0.60482421  1
  Sr  Sr34  1  0.07564878  0.00266129  0.40611196  1
  Sr  Sr35  1  0.42445345  0.50260428  0.90618131  1
  Br  Br36  1  0.46292698  0.26018615  0.87794630  1
  Br  Br37  1  0.26084001  0.00797404  0.09516256  1
  Br  Br38  1  0.65402063  0.00122705  0.33421718  1
  Br  Br39  1  0.96716455  0.24163729  0.60608831  1
  Br  Br40  1  0.32748572  0.98814919  0.65744486  1
  Br  Br41  1  0.74786420  0.97436161  0.93505537  1
  Br  Br42  1  0.53305111  0.74148799  0.10631454  1
  Br  Br43  1  0.75223265  0.47455727  0.43467497  1
  Br  Br44  1  0.17211360  0.48800887  0.15709216  1
  Br  Br45  1  0.03769540  0.76022745  0.37798907  1
  Br  Br46  1  0.23934847  0.50795878  0.59512447  1
  Br  Br47  1  0.84584202  0.50144999  0.83376063  1
