# generated using pymatgen
data_BeCdH12C2(I3N)2
_symmetry_space_group_name_H-M   'P 1'
_cell_length_a   7.49114088
_cell_length_b   13.30471108
_cell_length_c   8.51952837
_cell_angle_alpha   91.55637600
_cell_angle_beta   90.01627219
_cell_angle_gamma   89.99647157
_symmetry_Int_Tables_number   1
_chemical_formula_structural   BeCdH12C2(I3N)2
_chemical_formula_sum   'Be2 Cd2 H24 C4 I12 N4'
_cell_volume   848.80650753
_cell_formula_units_Z   2
loop_
 _symmetry_equiv_pos_site_id
 _symmetry_equiv_pos_as_xyz
  1  'x, y, z'
loop_
 _atom_site_type_symbol
 _atom_site_label
 _atom_site_symmetry_multiplicity
 _atom_site_fract_x
 _atom_site_fract_y
 _atom_site_fract_z
 _atom_site_occupancy
  C  C0  1  0.41323489  0.25632614  0.35982188  1
  C  C1  1  0.88466796  0.24697432  0.14194067  1
  C  C2  1  0.61593326  0.74677554  0.64070972  1
  C  C3  1  0.08788327  0.75593458  0.85986872  1
  N  N4  1  0.56344264  0.23453262  0.46703733  1
  N  N5  1  0.03480029  0.23977322  0.02918355  1
  N  N6  1  0.46421058  0.74019008  0.52947620  1
  N  N7  1  0.93612189  0.73460984  0.96556747  1
  H  H8  1  0.46360181  0.25878654  0.23911604  1
  H  H9  1  0.31474518  0.19591411  0.36860213  1
  H  H10  1  0.35365988  0.32861533  0.39553320  1
  H  H11  1  0.62174873  0.16439334  0.43944313  1
  H  H12  1  0.66360645  0.28831919  0.46320070  1
  H  H13  1  0.52291650  0.23333405  0.58488205  1
  H  H14  1  0.93910110  0.24967749  0.26158111  1
  H  H15  1  0.80007926  0.18037451  0.12511923  1
  H  H16  1  0.80920719  0.31556425  0.11919059  1
  H  H17  1  0.10765304  0.17303336  0.04319873  1
  H  H18  1  0.12229838  0.29972248  0.04494872  1
  H  H19  1  0.99341031  0.24168992  0.91177327  1
  H  H20  1  0.56313920  0.74925606  0.76093155  1
  H  H21  1  0.69989930  0.68005897  0.62255905  1
  H  H22  1  0.69153115  0.81527749  0.61762545  1
  H  H23  1  0.37751411  0.80045738  0.54629022  1
  H  H24  1  0.39101054  0.67366728  0.54392059  1
  H  H25  1  0.50416508  0.74211363  0.41168667  1
  H  H26  1  0.03909949  0.75836257  0.73860891  1
  H  H27  1  0.14746656  0.82815229  0.89601046  1
  H  H28  1  0.18583126  0.69537067  0.86993656  1
  H  H29  1  0.83670844  0.78886179  0.96078592  1
  H  H30  1  0.87733914  0.66469747  0.93750348  1
  H  H31  1  0.97531292  0.73331105  0.08377671  1
  Be  Be32  1  0.43521367  0.06055695  0.88631907  1
  Be  Be33  1  0.06467347  0.56059998  0.38497376  1
  Cd  Cd34  1  0.93814755  0.05243071  0.62708172  1
  Cd  Cd35  1  0.56140173  0.55225798  0.12698918  1
  I  I36  1  0.47263877  0.23768850  0.87274077  1
  I  I37  1  0.26191622  0.01477107  0.10610182  1
  I  I38  1  0.74936555  0.99440975  0.36403478  1
  I  I39  1  0.99297790  0.25808312  0.62100592  1
  I  I40  1  0.30300272  0.98698768  0.63989777  1
  I  I41  1  0.74499508  0.98810866  0.89624436  1
  I  I42  1  0.50761642  0.75799390  0.12114981  1
  I  I43  1  0.75523369  0.48809343  0.39579840  1
  I  I44  1  0.19649412  0.48692559  0.13849737  1
  I  I45  1  0.02747981  0.73775750  0.37139306  1
  I  I46  1  0.23808042  0.51481181  0.60484413  1
  I  I47  1  0.74944677  0.49447409  0.86339463  1
