# generated using pymatgen
data_BeGeH12C2(Br3N)2
_symmetry_space_group_name_H-M   'P 1'
_cell_length_a   7.20757189
_cell_length_b   11.63425954
_cell_length_c   8.41401336
_cell_angle_alpha   91.78103807
_cell_angle_beta   89.83785590
_cell_angle_gamma   89.88919124
_symmetry_Int_Tables_number   1
_chemical_formula_structural   BeGeH12C2(Br3N)2
_chemical_formula_sum   'Be2 Ge2 H24 C4 Br12 N4'
_cell_volume   705.20996841
_cell_formula_units_Z   2
loop_
 _symmetry_equiv_pos_site_id
 _symmetry_equiv_pos_as_xyz
  1  'x, y, z'
loop_
 _atom_site_type_symbol
 _atom_site_label
 _atom_site_symmetry_multiplicity
 _atom_site_fract_x
 _atom_site_fract_y
 _atom_site_fract_z
 _atom_site_occupancy
  C  C0  1  0.35500743  0.25543924  0.35123579  1
  C  C1  1  0.84329010  0.25979120  0.14280145  1
  C  C2  1  0.65735946  0.76002126  0.64335637  1
  C  C3  1  0.14434148  0.75535908  0.85247135  1
  N  N4  1  0.48376944  0.25541162  0.48766801  1
  N  N5  1  0.98042306  0.24806500  0.01138315  1
  N  N6  1  0.52150785  0.74820004  0.51169959  1
  N  N7  1  0.01577033  0.75605054  0.98969652  1
  H  H8  1  0.43412452  0.24478289  0.24047865  1
  H  H9  1  0.25807876  0.18385032  0.36206374  1
  H  H10  1  0.27941943  0.33695500  0.35320048  1
  H  H11  1  0.56423812  0.18130827  0.48552555  1
  H  H12  1  0.57311044  0.32624803  0.48438162  1
  H  H13  1  0.41530637  0.25956764  0.59658964  1
  H  H14  1  0.91597612  0.25712697  0.25687600  1
  H  H15  1  0.74441482  0.18886113  0.13156763  1
  H  H16  1  0.77343129  0.34286754  0.13369918  1
  H  H17  1  0.05419279  0.17186598  0.01471414  1
  H  H18  1  0.07445082  0.31587516  0.01813152  1
  H  H19  1  0.91955489  0.24961356  0.89889354  1
  H  H20  1  0.58382905  0.75647449  0.75730418  1
  H  H21  1  0.75767325  0.68961065  0.63168866  1
  H  H22  1  0.72568152  0.84347759  0.63508982  1
  H  H23  1  0.42605090  0.81546946  0.51899982  1
  H  H24  1  0.44952008  0.67149335  0.51407997  1
  H  H25  1  0.58317346  0.75070339  0.39936406  1
  H  H26  1  0.06513264  0.74395120  0.74230562  1
  H  H27  1  0.21915924  0.83694724  0.85303329  1
  H  H28  1  0.24195537  0.68395881  0.86359832  1
  H  H29  1  0.92602238  0.82686558  0.98612890  1
  H  H30  1  0.93565389  0.68204292  0.98882699  1
  H  H31  1  0.08441360  0.76075554  0.09817910  1
  Be  Be32  1  0.57919528  0.93132794  0.11901923  1
  Be  Be33  1  0.91926922  0.43117784  0.61978222  1
  Ge  Ge34  1  0.08667723  0.98529386  0.38998510  1
  Ge  Ge35  1  0.41320000  0.48485785  0.88693351  1
  Br  Br36  1  0.43284480  0.27194560  0.88303436  1
  Br  Br37  1  0.28731190  0.99977596  0.09817677  1
  Br  Br38  1  0.67559748  0.99960327  0.35277170  1
  Br  Br39  1  0.93198461  0.24446840  0.61766003  1
  Br  Br40  1  0.29135137  0.99779327  0.63335453  1
  Br  Br41  1  0.75437639  0.99041811  0.92878227  1
  Br  Br42  1  0.56658364  0.74474001  0.11734278  1
  Br  Br43  1  0.74365021  0.49013005  0.43013109  1
  Br  Br44  1  0.20969062  0.49788691  0.13204856  1
  Br  Br45  1  0.06840096  0.77234653  0.38491339  1
  Br  Br46  1  0.21005183  0.49956094  0.59687458  1
  Br  Br47  1  0.82380526  0.49974108  0.85445383  1
