# generated using pymatgen
data_BeGaH12C2(Br3N)2
_symmetry_space_group_name_H-M   'P 1'
_cell_length_a   8.65104791
_cell_length_b   10.51703674
_cell_length_c   7.99410912
_cell_angle_alpha   88.98163536
_cell_angle_beta   85.70842932
_cell_angle_gamma   87.85510401
_symmetry_Int_Tables_number   1
_chemical_formula_structural   BeGaH12C2(Br3N)2
_chemical_formula_sum   'Be2 Ga2 H24 C4 Br12 N4'
_cell_volume   724.70184167
_cell_formula_units_Z   2
loop_
 _symmetry_equiv_pos_site_id
 _symmetry_equiv_pos_as_xyz
  1  'x, y, z'
loop_
 _atom_site_type_symbol
 _atom_site_label
 _atom_site_symmetry_multiplicity
 _atom_site_fract_x
 _atom_site_fract_y
 _atom_site_fract_z
 _atom_site_occupancy
  C  C0  1  0.44081673  0.25289929  0.43129965  1
  C  C1  1  0.95463816  0.24096014  0.05005004  1
  C  C2  1  0.55184890  0.75442951  0.56537726  1
  C  C3  1  0.04611525  0.76444113  0.95722258  1
  N  N4  1  0.57974707  0.24266993  0.53015892  1
  N  N5  1  0.09537796  0.25089945  0.93271506  1
  N  N6  1  0.41911661  0.76286754  0.45701152  1
  N  N7  1  0.90917352  0.73827742  0.07467928  1
  H  H8  1  0.47872148  0.24041656  0.29885609  1
  H  H9  1  0.36086209  0.17896968  0.47332422  1
  H  H10  1  0.38428580  0.34658225  0.45034819  1
  H  H11  1  0.63958154  0.15653304  0.50653351  1
  H  H12  1  0.65430145  0.31548268  0.49106264  1
  H  H13  1  0.55312360  0.25106621  0.65826422  1
  H  H14  1  0.99040542  0.22620166  0.17773760  1
  H  H15  1  0.88647895  0.16174461  0.01385048  1
  H  H16  1  0.88620476  0.33031089  0.04331504  1
  H  H17  1  0.16232978  0.16722671  0.92690157  1
  H  H18  1  0.16286513  0.32161483  0.97585897  1
  H  H19  1  0.06829273  0.27541436  0.81017959  1
  H  H20  1  0.50745735  0.76548671  0.69596808  1
  H  H21  1  0.61084196  0.66151462  0.54824865  1
  H  H22  1  0.63066718  0.83035952  0.52758863  1
  H  H23  1  0.36858751  0.85338788  0.45848379  1
  H  H24  1  0.33341303  0.70045393  0.49786407  1
  H  H25  1  0.45270041  0.74148332  0.33251254  1
  H  H26  1  0.00656088  0.78443780  0.83214064  1
  H  H27  1  0.10731274  0.84484075  1.00252501  1
  H  H28  1  0.12250027  0.67913484  0.95182153  1
  H  H29  1  0.83523612  0.81779916  0.08915849  1
  H  H30  1  0.84669133  0.66603770  0.02793842  1
  H  H31  1  0.94175127  0.71086881  0.19408127  1
  Be  Be32  1  0.45567643  0.99526963  0.92862513  1
  Be  Be33  1  0.89826171  0.50219644  0.53134838  1
  Ga  Ga34  1  0.97615578  0.98831652  0.50478618  1
  Ga  Ga35  1  0.41897805  0.49506748  0.97157149  1
  Br  Br36  1  0.55409310  0.29531211  0.96589388  1
  Br  Br37  1  0.33079848  0.00810746  0.16386649  1
  Br  Br38  1  0.75334957  0.00164417  0.31108283  1
  Br  Br39  1  0.01673687  0.30891441  0.53280538  1
  Br  Br40  1  0.30959312  0.00649921  0.72938018  1
  Br  Br41  1  0.69535167  0.98226268  0.86079728  1
  Br  Br42  1  0.50995433  0.69570226  0.04320797  1
  Br  Br43  1  0.73344083  0.49057747  0.33767457  1
  Br  Br44  1  0.21107520  0.46743205  0.17709040  1
  Br  Br45  1  0.02986993  0.68289039  0.46310762  1
  Br  Br46  1  0.31025777  0.51324625  0.71005580  1
  Br  Br47  1  0.80842388  0.53182681  0.78592547  1
