# generated using pymatgen
data_BeZnH12C2(Br3N)2
_symmetry_space_group_name_H-M   'P 1'
_cell_length_a   6.51810351
_cell_length_b   12.14898233
_cell_length_c   8.48494414
_cell_angle_alpha   90.82686914
_cell_angle_beta   89.98292344
_cell_angle_gamma   89.98217335
_symmetry_Int_Tables_number   1
_chemical_formula_structural   BeZnH12C2(Br3N)2
_chemical_formula_sum   'Be2 Zn2 H24 C4 Br12 N4'
_cell_volume   671.83847738
_cell_formula_units_Z   2
loop_
 _symmetry_equiv_pos_site_id
 _symmetry_equiv_pos_as_xyz
  1  'x, y, z'
loop_
 _atom_site_type_symbol
 _atom_site_label
 _atom_site_symmetry_multiplicity
 _atom_site_fract_x
 _atom_site_fract_y
 _atom_site_fract_z
 _atom_site_occupancy
  C  C0  1  0.27861656  0.25443418  0.34165359  1
  C  C1  1  0.77907162  0.25649281  0.15716515  1
  C  C2  1  0.72093288  0.75657665  0.65773715  1
  C  C3  1  0.22148866  0.75442003  0.84219390  1
  N  N4  1  0.41634267  0.26324808  0.47975072  1
  N  N5  1  0.91736074  0.26564537  0.01971886  1
  N  N6  1  0.58199966  0.76570214  0.52071967  1
  N  N7  1  0.08437645  0.76320505  0.98071191  1
  H  H8  1  0.36977201  0.25037661  0.23338508  1
  H  H9  1  0.18690799  0.17960257  0.35291698  1
  H  H10  1  0.18095107  0.32766872  0.34058530  1
  H  H11  1  0.51764310  0.19808094  0.48758668  1
  H  H12  1  0.50312790  0.33581571  0.47587644  1
  H  H13  1  0.33519849  0.26358657  0.58549944  1
  H  H14  1  0.86982881  0.25352638  0.26550475  1
  H  H15  1  0.68886125  0.18116808  0.14314918  1
  H  H16  1  0.68021519  0.32928082  0.16065634  1
  H  H17  1  0.02030144  0.20114356  0.00927178  1
  H  H18  1  0.00249935  0.33859907  0.02728461  1
  H  H19  1  0.83694186  0.26608850  0.91359191  1
  H  H20  1  0.63066372  0.75344167  0.76634594  1
  H  H21  1  0.81142427  0.68134831  0.64333509  1
  H  H22  1  0.81948615  0.82944936  0.66104674  1
  H  H23  1  0.49667205  0.83862462  0.52855507  1
  H  H24  1  0.47920951  0.70115316  0.51053484  1
  H  H25  1  0.66193533  0.76620762  0.41433937  1
  H  H26  1  0.12986098  0.75057498  0.73419655  1
  H  H27  1  0.31927999  0.82757366  0.84100974  1
  H  H28  1  0.31309842  0.67948613  0.85300424  1
  H  H29  1  0.99746276  0.83575488  0.97707412  1
  H  H30  1  0.98324501  0.69801392  0.98885083  1
  H  H31  1  0.16600329  0.76354861  0.08620152  1
  Be  Be32  1  0.63854465  0.92947739  0.12652833  1
  Be  Be33  1  0.86144302  0.42954418  0.62602356  1
  Zn  Zn34  1  0.14067264  0.92965933  0.36937828  1
  Zn  Zn35  1  0.35915722  0.42957220  0.86903050  1
  Br  Br36  1  0.38946850  0.23464968  0.87271085  1
  Br  Br37  1  0.31739920  0.99848922  0.12984002  1
  Br  Br38  1  0.78323287  0.99905969  0.35078694  1
  Br  Br39  1  0.88619719  0.25310317  0.62697985  1
  Br  Br40  1  0.30495340  0.99898730  0.59966403  1
  Br  Br41  1  0.79773187  0.99168250  0.92510710  1
  Br  Br42  1  0.61394962  0.75303169  0.12765982  1
  Br  Br43  1  0.70245078  0.49187171  0.42464976  1
  Br  Br44  1  0.19449127  0.49883912  0.09931921  1
  Br  Br45  1  0.11054982  0.73473939  0.37325751  1
  Br  Br46  1  0.18257865  0.49849145  0.62954610  1
  Br  Br47  1  0.71642390  0.49904147  0.85036127  1
