# generated using pymatgen
data_BeNiH12C2(Br3N)2
_symmetry_space_group_name_H-M   'P 1'
_cell_length_a   6.71332889
_cell_length_b   10.48042282
_cell_length_c   9.36897532
_cell_angle_alpha   96.85233091
_cell_angle_beta   89.95547044
_cell_angle_gamma   90.02626408
_symmetry_Int_Tables_number   1
_chemical_formula_structural   BeNiH12C2(Br3N)2
_chemical_formula_sum   'Be2 Ni2 H24 C4 Br12 N4'
_cell_volume   654.47843708
_cell_formula_units_Z   2
loop_
 _symmetry_equiv_pos_site_id
 _symmetry_equiv_pos_as_xyz
  1  'x, y, z'
loop_
 _atom_site_type_symbol
 _atom_site_label
 _atom_site_symmetry_multiplicity
 _atom_site_fract_x
 _atom_site_fract_y
 _atom_site_fract_z
 _atom_site_occupancy
  C  C0  1  0.31899648  0.26021940  0.37101434  1
  C  C1  1  0.86391597  0.27608307  0.11759293  1
  C  C2  1  0.63569390  0.77630317  0.61784517  1
  C  C3  1  0.18118232  0.75998537  0.87138301  1
  N  N4  1  0.42241407  0.24714481  0.50759357  1
  N  N5  1  0.97347807  0.24191049  0.98118418  1
  N  N6  1  0.52613652  0.74188692  0.48158238  1
  N  N7  1  0.07783884  0.74715220  0.00816553  1
  H  H8  1  0.42450524  0.24025888  0.28239705  1
  H  H9  1  0.19657527  0.19073737  0.35847202  1
  H  H10  1  0.26346630  0.35846148  0.37465724  1
  H  H11  1  0.45902207  0.15255917  0.51678607  1
  H  H12  1  0.55124678  0.30265282  0.51306169  1
  H  H13  1  0.33664157  0.28062192  0.59613342  1
  H  H14  1  0.96159441  0.26217144  0.20761953  1
  H  H15  1  0.73226317  0.21471168  0.11785985  1
  H  H16  1  0.81936701  0.37700292  0.12409237  1
  H  H17  1  0.01672165  0.14649335  0.96940614  1
  H  H18  1  0.10094471  0.29826567  0.97656808  1
  H  H19  1  0.88445945  0.25389581  0.89351075  1
  H  H20  1  0.53817424  0.76221960  0.70800567  1
  H  H21  1  0.76758033  0.71518147  0.61794316  1
  H  H22  1  0.67989724  0.87730160  0.62424838  1
  H  H23  1  0.39850639  0.79805661  0.47707491  1
  H  H24  1  0.48307549  0.64642003  0.46994734  1
  H  H25  1  0.61503256  0.75396073  0.39379003  1
  H  H26  1  0.07551722  0.74004608  0.78295722  1
  H  H27  1  0.23707445  0.85814777  0.87478881  1
  H  H28  1  0.30332466  0.69034673  0.85871890  1
  H  H29  1  0.94906697  0.80266430  0.01370364  1
  H  H30  1  0.04118685  0.65261768  0.01765416  1
  H  H31  1  0.16370768  0.78080312  0.09653342  1
  Be  Be32  1  0.58853925  0.92173778  0.10479137  1
  Be  Be33  1  0.91178815  0.42190976  0.60475881  1
  Ni  Ni34  1  0.98934736  0.00075868  0.47850290  1
  Ni  Ni35  1  0.51066524  0.50073953  0.97843856  1
  Br  Br36  1  0.45385677  0.29143442  0.88008241  1
  Br  Br37  1  0.30333544  0.00781153  0.11972001  1
  Br  Br38  1  0.71214014  0.01690055  0.32624368  1
  Br  Br39  1  0.89742635  0.20528855  0.62119308  1
  Br  Br40  1  0.25500468  0.99092663  0.63366855  1
  Br  Br41  1  0.75772644  0.96186722  0.92471958  1
  Br  Br42  1  0.60234455  0.70518060  0.12142605  1
  Br  Br43  1  0.74306896  0.46218695  0.42472994  1
  Br  Br44  1  0.24451967  0.49073490  0.13345249  1
  Br  Br45  1  0.04626737  0.79141968  0.38036044  1
  Br  Br46  1  0.19725381  0.50778367  0.61970212  1
  Br  Br47  1  0.78813166  0.51711417  0.82621561  1
