# generated using pymatgen
data_CaBeH12C2(Br3N)2
_symmetry_space_group_name_H-M   'P 1'
_cell_length_a   6.86491009
_cell_length_b   12.08337727
_cell_length_c   8.69719893
_cell_angle_alpha   93.26769856
_cell_angle_beta   89.98031393
_cell_angle_gamma   89.96384182
_symmetry_Int_Tables_number   1
_chemical_formula_structural   CaBeH12C2(Br3N)2
_chemical_formula_sum   'Ca2 Be2 H24 C4 Br12 N4'
_cell_volume   720.27076122
_cell_formula_units_Z   2
loop_
 _symmetry_equiv_pos_site_id
 _symmetry_equiv_pos_as_xyz
  1  'x, y, z'
loop_
 _atom_site_type_symbol
 _atom_site_label
 _atom_site_symmetry_multiplicity
 _atom_site_fract_x
 _atom_site_fract_y
 _atom_site_fract_z
 _atom_site_occupancy
  C  C0  1  0.33205591  0.25572322  0.35641290  1
  C  C1  1  0.82564967  0.25853270  0.14023434  1
  C  C2  1  0.67449384  0.75858501  0.64048314  1
  C  C3  1  0.16828956  0.75551374  0.85695757  1
  N  N4  1  0.45687136  0.25279554  0.49471155  1
  N  N5  1  0.95841982  0.25903529  0.00587237  1
  N  N6  1  0.54115075  0.75903447  0.50654043  1
  N  N7  1  0.04353440  0.75286469  0.99537451  1
  H  H8  1  0.41968601  0.23879105  0.25261854  1
  H  H9  1  0.21841480  0.19290302  0.36333739  1
  H  H10  1  0.26413395  0.33755243  0.35377163  1
  H  H11  1  0.53710654  0.18027468  0.49574372  1
  H  H12  1  0.55428186  0.31950490  0.49709049  1
  H  H13  1  0.37882103  0.25766751  0.59781590  1
  H  H14  1  0.91182041  0.25474236  0.24576685  1
  H  H15  1  0.72857991  0.18708011  0.12540395  1
  H  H16  1  0.74253553  0.33592547  0.14599849  1
  H  H17  1  0.04617687  0.18952613  0.99489771  1
  H  H18  1  0.04954757  0.32866102  0.01799347  1
  H  H19  1  0.88294700  0.26224997  0.90243667  1
  H  H20  1  0.58879950  0.75461644  0.74627492  1
  H  H21  1  0.77194037  0.68725418  0.62526710  1
  H  H22  1  0.75716853  0.83606776  0.64610094  1
  H  H23  1  0.44972543  0.82859693  0.51896218  1
  H  H24  1  0.45370008  0.68945875  0.49578932  1
  H  H25  1  0.61612973  0.76232253  0.40284590  1
  H  H26  1  0.08063718  0.73848704  0.75326648  1
  H  H27  1  0.23617200  0.83729296  0.85404227  1
  H  H28  1  0.28199283  0.69266225  0.86402318  1
  H  H29  1  0.94597808  0.81957623  0.99759423  1
  H  H30  1  0.96350879  0.68035764  0.99683578  1
  H  H31  1  0.12164835  0.75794624  0.09840607  1
  Be  Be32  1  0.58640495  0.93312645  0.11291756  1
  Be  Be33  1  0.91331865  0.43315660  0.61256265  1
  Ca  Ca34  1  0.09350983  0.96767151  0.38238003  1
  Ca  Ca35  1  0.40612144  0.46739130  0.88178707  1
  Br  Br36  1  0.43792752  0.24589273  0.87647083  1
  Br  Br37  1  0.28618722  0.00450203  0.09916425  1
  Br  Br38  1  0.69374135  0.00967151  0.34316211  1
  Br  Br39  1  0.93351991  0.25372320  0.61871083  1
  Br  Br40  1  0.31252818  0.99293194  0.63986331  1
  Br  Br41  1  0.77700217  0.98168174  0.93387573  1
  Br  Br42  1  0.56666319  0.75373849  0.11928328  1
  Br  Br43  1  0.72276959  0.48178812  0.43356719  1
  Br  Br44  1  0.18682395  0.49293489  0.13926310  1
  Br  Br45  1  0.06240747  0.74613434  0.37681828  1
  Br  Br46  1  0.21343173  0.50446115  0.59878624  1
  Br  Br47  1  0.80574895  0.50967002  0.84281417  1
