# generated using pymatgen
data_BeSiH12C2(Br3N)2
_symmetry_space_group_name_H-M   'P 1'
_cell_length_a   7.19839461
_cell_length_b   11.52184084
_cell_length_c   8.41052387
_cell_angle_alpha   91.24789968
_cell_angle_beta   90.04015928
_cell_angle_gamma   89.84937533
_symmetry_Int_Tables_number   1
_chemical_formula_structural   BeSiH12C2(Br3N)2
_chemical_formula_sum   'Be2 Si2 H24 C4 Br12 N4'
_cell_volume   697.39039834
_cell_formula_units_Z   2
loop_
 _symmetry_equiv_pos_site_id
 _symmetry_equiv_pos_as_xyz
  1  'x, y, z'
loop_
 _atom_site_type_symbol
 _atom_site_label
 _atom_site_symmetry_multiplicity
 _atom_site_fract_x
 _atom_site_fract_y
 _atom_site_fract_z
 _atom_site_occupancy
  C  C0  1  0.36816186  0.25566520  0.35492942  1
  C  C1  1  0.85054934  0.25678523  0.14310482  1
  C  C2  1  0.65077438  0.75712641  0.64248278  1
  C  C3  1  0.13032495  0.75613512  0.85437319  1
  N  N4  1  0.48350709  0.26062538  0.50049766  1
  N  N5  1  0.96584795  0.24306128  0.99798969  1
  N  N6  1  0.53624785  0.74331849  0.49687015  1
  N  N7  1  0.01659346  0.76116560  0.00076577  1
  H  H8  1  0.45856610  0.24573970  0.25113100  1
  H  H9  1  0.27480138  0.18109243  0.36091100  1
  H  H10  1  0.28784964  0.33603997  0.34847006  1
  H  H11  1  0.56579228  0.18722081  0.50964454  1
  H  H12  1  0.57176024  0.33261313  0.49845921  1
  H  H13  1  0.40370643  0.26760822  0.60284108  1
  H  H14  1  0.93986545  0.25216532  0.24824680  1
  H  H15  1  0.74911772  0.18635410  0.14383121  1
  H  H16  1  0.78247640  0.34166792  0.14100632  1
  H  H17  1  0.03526844  0.16437496  0.99422481  1
  H  H18  1  0.06345707  0.30887012  0.99310182  1
  H  H19  1  0.88895112  0.24680443  0.89333790  1
  H  H20  1  0.56144043  0.75099188  0.74729017  1
  H  H21  1  0.75425442  0.68751148  0.64260763  1
  H  H22  1  0.71628648  0.84260202  0.64167678  1
  H  H23  1  0.43547763  0.80763986  0.49300050  1
  H  H24  1  0.47106613  0.66351832  0.49109759  1
  H  H25  1  0.61310209  0.74948407  0.39262925  1
  H  H26  1  0.03891251  0.74543719  0.75131955  1
  H  H27  1  0.20896802  0.83681225  0.84675210  1
  H  H28  1  0.22525291  0.68200202  0.86017618  1
  H  H29  1  0.92729226  0.83294021  0.99899680  1
  H  H30  1  0.93560180  0.68758221  0.01095683  1
  H  H31  1  0.09760507  0.76865478  0.10240449  1
  Be  Be32  1  0.57257265  0.93181638  0.11467553  1
  Be  Be33  1  0.92578551  0.43124313  0.61571099  1
  Si  Si34  1  0.09664614  0.98775704  0.40434633  1
  Si  Si35  1  0.40223189  0.48762050  0.90363607  1
  Br  Br36  1  0.42772561  0.28164738  0.89805723  1
  Br  Br37  1  0.27790046  -0.00000411  0.10511367  1
  Br  Br38  1  0.67933139  0.99757405  0.34346932  1
  Br  Br39  1  0.93894225  0.24232603  0.60793299  1
  Br  Br40  1  0.30248349  0.99718049  0.62932526  1
  Br  Br41  1  0.74130752  0.99249942  0.91924067  1
  Br  Br42  1  0.56020936  0.74296751  0.10667680  1
  Br  Br43  1  0.75665099  0.49170867  0.41961496  1
  Br  Br44  1  0.19753724  0.49740048  0.12941839  1
  Br  Br45  1  0.07292040  0.78175439  0.39825956  1
  Br  Br46  1  0.21952694  0.49948227  0.60540934  1
  Br  Br47  1  0.81937299  0.49749451  0.84428238  1
