# generated using pymatgen
data_BeAlH12C2(Br3N)2
_symmetry_space_group_name_H-M   'P 1'
_cell_length_a   7.03546786
_cell_length_b   12.36033998
_cell_length_c   8.49472051
_cell_angle_alpha   91.54136993
_cell_angle_beta   80.81782615
_cell_angle_gamma   84.15054374
_symmetry_Int_Tables_number   1
_chemical_formula_structural   BeAlH12C2(Br3N)2
_chemical_formula_sum   'Be2 Al2 H24 C4 Br12 N4'
_cell_volume   724.74356712
_cell_formula_units_Z   2
loop_
 _symmetry_equiv_pos_site_id
 _symmetry_equiv_pos_as_xyz
  1  'x, y, z'
loop_
 _atom_site_type_symbol
 _atom_site_label
 _atom_site_symmetry_multiplicity
 _atom_site_fract_x
 _atom_site_fract_y
 _atom_site_fract_z
 _atom_site_occupancy
  C  C0  1  0.39742736  0.26844227  0.33526495  1
  C  C1  1  0.90797549  0.25846493  0.10095450  1
  C  C2  1  0.59682302  0.73690288  0.63991973  1
  C  C3  1  0.12533379  0.77017769  0.89968603  1
  N  N4  1  0.44523150  0.22861352  0.48928468  1
  N  N5  1  0.95623245  0.18001226  0.96135753  1
  N  N6  1  0.60063433  0.79882405  0.49263908  1
  N  N7  1  0.03540527  0.79565271  0.06834508  1
  H  H8  1  0.45745796  0.20658904  0.24125614  1
  H  H9  1  0.23978850  0.28094889  0.34477715  1
  H  H10  1  0.45832858  0.34573298  0.31287315  1
  H  H11  1  0.39229318  0.15387050  0.51973659  1
  H  H12  1  0.59326454  0.21675365  0.48830858  1
  H  H13  1  0.38753985  0.28424694  0.58207550  1
  H  H14  1  0.91511204  0.21331243  0.20940145  1
  H  H15  1  0.76170541  0.29883167  0.10335762  1
  H  H16  1  0.01203421  0.31904453  0.09067290  1
  H  H17  1  0.85957128  0.12048534  0.96314235  1
  H  H18  1  0.09220442  0.13730430  0.95876200  1
  H  H19  1  0.95447669  0.21761461  0.85367478  1
  H  H20  1  0.46440816  0.69635794  0.65963509  1
  H  H21  1  0.72423022  0.67697086  0.62354001  1
  H  H22  1  0.60251025  0.79377812  0.73963149  1
  H  H23  1  0.50720439  0.87084795  0.51429343  1
  H  H24  1  0.56094075  0.75611699  0.39831338  1
  H  H25  1  0.73939231  0.81955664  0.45455197  1
  H  H26  1  0.02886795  0.80715934  0.82234680  1
  H  H27  1  0.26383232  0.80455804  0.87859129  1
  H  H28  1  0.14669464  0.68184859  0.87818638  1
  H  H29  1  0.03276953  0.87830236  0.09618268  1
  H  H30  1  0.89251812  0.77608616  0.08914410  1
  H  H31  1  0.11122495  0.75612662  0.14931524  1
  Be  Be32  1  0.55549668  0.94174768  0.08419176  1
  Be  Be33  1  0.80575455  0.42407357  0.59151685  1
  Al  Al34  1  0.02206732  0.97583209  0.50413910  1
  Al  Al35  1  0.39285547  0.44177673  0.88897966  1
  Br  Br36  1  0.43892089  0.25543284  0.89867324  1
  Br  Br37  1  0.25368826  0.01497709  0.12985730  1
  Br  Br38  1  0.69893514  0.01267845  0.26366718  1
  Br  Br39  1  0.91386040  0.26151200  0.58294772  1
  Br  Br40  1  0.30006374  0.00965553  0.66133344  1
  Br  Br41  1  0.72089412  0.97904448  0.85521334  1
  Br  Br42  1  0.56629401  0.76244709  0.10092123  1
  Br  Br43  1  0.74955682  0.50000058  0.39220985  1
  Br  Br44  1  0.24226454  0.52197664  0.12671357  1
  Br  Br45  1  0.10516809  0.76100928  0.45646682  1
  Br  Br46  1  0.25234910  0.49016149  0.66900529  1
  Br  Br47  1  0.71842117  0.49821793  0.83523859  1
