# generated using pymatgen
data_MgBeH12C2(Br3N)2
_symmetry_space_group_name_H-M   'P 1'
_cell_length_a   6.56589437
_cell_length_b   12.12643551
_cell_length_c   8.70992956
_cell_angle_alpha   91.80151668
_cell_angle_beta   89.97541761
_cell_angle_gamma   89.97557492
_symmetry_Int_Tables_number   1
_chemical_formula_structural   MgBeH12C2(Br3N)2
_chemical_formula_sum   'Mg2 Be2 H24 C4 Br12 N4'
_cell_volume   693.14947908
_cell_formula_units_Z   2
loop_
 _symmetry_equiv_pos_site_id
 _symmetry_equiv_pos_as_xyz
  1  'x, y, z'
loop_
 _atom_site_type_symbol
 _atom_site_label
 _atom_site_symmetry_multiplicity
 _atom_site_fract_x
 _atom_site_fract_y
 _atom_site_fract_z
 _atom_site_occupancy
  C  C0  1  0.33014366  0.25720154  0.34856573  1
  C  C1  1  0.83086594  0.25961650  0.15086968  1
  C  C2  1  0.66935032  0.75980076  0.65116085  1
  C  C3  1  0.16986156  0.75715193  0.84886741  1
  N  N4  1  0.42907004  0.25804706  0.50102013  1
  N  N5  1  0.93060100  0.26126962  0.99868430  1
  N  N6  1  0.56881795  0.76133005  0.49933147  1
  N  N7  1  0.07159747  0.75809134  0.00162265  1
  H  H8  1  0.44522506  0.24842006  0.25839773  1
  H  H9  1  0.22576320  0.18709039  0.34135569  1
  H  H10  1  0.24870928  0.33530044  0.33657793  1
  H  H11  1  0.51001965  0.18659298  0.51974421  1
  H  H12  1  0.52840139  0.32488291  0.51189797  1
  H  H13  1  0.32144985  0.26401113  0.58837464  1
  H  H14  1  0.94642260  0.25564713  0.24070797  1
  H  H15  1  0.73255760  0.18702809  0.15321952  1
  H  H16  1  0.74356570  0.33597436  0.16758364  1
  H  H17  1  0.02236157  0.19340909  0.97663844  1
  H  H18  1  0.02115298  0.33149952  0.99243418  1
  H  H19  1  0.82310947  0.26235428  0.91107161  1
  H  H20  1  0.55431444  0.75571519  0.74142928  1
  H  H21  1  0.76812720  0.68735418  0.65318069  1
  H  H22  1  0.75630127  0.83627823  0.66751214  1
  H  H23  1  0.47775413  0.83140518  0.49338719  1
  H  H24  1  0.47735556  0.69329232  0.47763368  1
  H  H25  1  0.67575368  0.76250967  0.41131205  1
  H  H26  1  0.05439303  0.74844978  0.75906783  1
  H  H27  1  0.25123568  0.83523025  0.83662709  1
  H  H28  1  0.27420443  0.68700086  0.84132099  1
  H  H29  1  0.97210308  0.82484443  0.01271604  1
  H  H30  1  0.99099618  0.68655298  0.02070871  1
  H  H31  1  0.17959990  0.76412969  0.08861781  1
  Be  Be32  1  0.60814186  0.93151927  0.12152831  1
  Be  Be33  1  0.89179250  0.43155098  0.62123576  1
  Mg  Mg34  1  0.11121114  0.93775520  0.37188573  1
  Mg  Mg35  1  0.38851499  0.43768869  0.87162323  1
  Br  Br36  1  0.42483395  0.23721369  0.88154683  1
  Br  Br37  1  0.28984853  0.00169237  0.12752402  1
  Br  Br38  1  0.74704224  0.00407108  0.34436972  1
  Br  Br39  1  0.92015089  0.25446592  0.61917309  1
  Br  Br40  1  0.29516499  0.99752075  0.60296310  1
  Br  Br41  1  0.78029603  0.98705504  0.93077887  1
  Br  Br42  1  0.58006886  0.75442384  0.11957030  1
  Br  Br43  1  0.71983126  0.48715830  0.43048716  1
  Br  Br44  1  0.20424888  0.49742930  0.10273079  1
  Br  Br45  1  0.07510202  0.73730015  0.38184794  1
  Br  Br46  1  0.21005640  0.50166831  0.62731783  1
  Br  Br47  1  0.75253432  0.50408345  0.84407467  1
