# generated using pymatgen
data_BeH12C3(Br3N)2
_symmetry_space_group_name_H-M   'P 1'
_cell_length_a   7.02927109
_cell_length_b   11.29674496
_cell_length_c   8.54655083
_cell_angle_alpha   93.95528351
_cell_angle_beta   89.98699292
_cell_angle_gamma   90.00479825
_symmetry_Int_Tables_number   1
_chemical_formula_structural   BeH12C3(Br3N)2
_chemical_formula_sum   'Be2 H24 C6 Br12 N4'
_cell_volume   677.04703762
_cell_formula_units_Z   2
loop_
 _symmetry_equiv_pos_site_id
 _symmetry_equiv_pos_as_xyz
  1  'x, y, z'
loop_
 _atom_site_type_symbol
 _atom_site_label
 _atom_site_symmetry_multiplicity
 _atom_site_fract_x
 _atom_site_fract_y
 _atom_site_fract_z
 _atom_site_occupancy
  C  C0  1  0.42280159  0.31430080  0.36516087  1
  C  C1  1  0.85307272  0.23261361  0.13549836  1
  C  C2  1  0.64695589  0.73275229  0.63567590  1
  C  C3  1  0.07721486  0.81425363  0.86543136  1
  N  N4  1  0.49039780  0.27306903  0.51738804  1
  N  N5  1  0.90257577  0.22586039  0.96646731  1
  N  N6  1  0.59729878  0.72581920  0.46668845  1
  N  N7  1  0.00970599  0.77298853  0.01769206  1
  H  H8  1  0.53685213  0.36524346  0.31424163  1
  H  H9  1  0.38444338  0.23663713  0.28782301  1
  H  H10  1  0.29750477  0.37042089  0.38755601  1
  H  H11  1  0.61050412  0.21972806  0.50452268  1
  H  H12  1  0.52645205  0.34395332  0.59573714  1
  H  H13  1  0.38420211  0.22551283  0.56957904  1
  H  H14  1  0.94660918  0.17400340  0.19708408  1
  H  H15  1  0.70580886  0.20273773  0.14603439  1
  H  H16  1  0.86925545  0.32401129  0.18423258  1
  H  H17  1  0.84978060  0.14731746  0.91221817  1
  H  H18  1  0.04858319  0.22968928  0.94787210  1
  H  H19  1  0.84295944  0.29674156  0.91031930  1
  H  H20  1  0.55339785  0.67426872  0.69749352  1
  H  H21  1  0.79419591  0.70283328  0.64612829  1
  H  H22  1  0.63093511  0.82420443  0.68422897  1
  H  H23  1  0.45127750  0.72966003  0.44822571  1
  H  H24  1  0.65001397  0.64722469  0.41251678  1
  H  H25  1  0.65691413  0.79663099  0.41037111  1
  H  H26  1  0.96318539  0.86526534  0.81466504  1
  H  H27  1  0.20260714  0.87031699  0.88774110  1
  H  H28  1  0.11541328  0.73660395  0.78800369  1
  H  H29  1  0.97371298  0.84385797  0.09609886  1
  H  H30  1  0.88956431  0.71966024  0.00488672  1
  H  H31  1  0.11590666  0.72541028  0.06977383  1
  Be  Be32  1  0.54153928  0.91770486  0.12235730  1
  Be  Be33  1  0.95849985  0.41776523  0.62218258  1
  C  C34  1  0.14179236  0.95076140  0.43739091  1
  C  C35  1  0.35817424  0.45071908  0.93716345  1
  Br  Br36  1  0.37608419  0.26938573  0.91674983  1
  Br  Br37  1  0.25880839  0.00284098  0.19477711  1
  Br  Br38  1  0.73707742  0.96852949  0.30729945  1
  Br  Br39  1  0.98268789  0.22760221  0.57707114  1
  Br  Br40  1  0.34476025  0.98558653  0.59441967  1
  Br  Br41  1  0.62831040  0.99581415  0.90671525  1
  Br  Br42  1  0.51732132  0.72753801  0.07727058  1
  Br  Br43  1  0.87160754  0.49584092  0.40656985  1
  Br  Br44  1  0.15516967  0.48549971  0.09422785  1
  Br  Br45  1  0.12386956  0.76942010  0.41702450  1
  Br  Br46  1  0.24125122  0.50287719  0.69452606  1
  Br  Br47  1  0.76296724  0.46860189  0.80719500  1
