# generated using pymatgen
data_BeBH12C2(Br3N)2
_symmetry_space_group_name_H-M   'P 1'
_cell_length_a   6.92264113
_cell_length_b   11.34400813
_cell_length_c   9.28373841
_cell_angle_alpha   79.72321643
_cell_angle_beta   99.24167146
_cell_angle_gamma   100.18805140
_symmetry_Int_Tables_number   1
_chemical_formula_structural   BeBH12C2(Br3N)2
_chemical_formula_sum   'Be2 B2 H24 C4 Br12 N4'
_cell_volume   699.75361735
_cell_formula_units_Z   2
loop_
 _symmetry_equiv_pos_site_id
 _symmetry_equiv_pos_as_xyz
  1  'x, y, z'
loop_
 _atom_site_type_symbol
 _atom_site_label
 _atom_site_symmetry_multiplicity
 _atom_site_fract_x
 _atom_site_fract_y
 _atom_site_fract_z
 _atom_site_occupancy
  C  C0  1  0.46786543  0.19399143  0.35423425  1
  C  C1  1  0.83981697  0.28758889  0.09555971  1
  C  C2  1  0.57282460  0.83017507  0.54583632  1
  C  C3  1  0.05539630  0.70989704  0.94447042  1
  N  N4  1  0.48906299  0.27498813  0.46690632  1
  N  N5  1  0.90155122  0.29588266  0.94777029  1
  N  N6  1  0.37812588  0.83038243  0.44920650  1
  N  N7  1  0.08030626  0.75119165  0.09036728  1
  H  H8  1  0.39696147  0.23804064  0.24943921  1
  H  H9  1  0.37434657  0.10922532  0.39155248  1
  H  H10  1  0.34906528  0.28639311  0.48562058  1
  H  H11  1  0.61494301  0.17749733  0.34206931  1
  H  H12  1  0.57114789  0.36033154  0.43546448  1
  H  H13  1  0.55933847  0.23771362  0.56657503  1
  H  H14  1  0.92618028  0.22729065  0.17563296  1
  H  H15  1  0.68197834  0.25114178  0.08915888  1
  H  H16  1  0.86717680  0.37792326  0.12820721  1
  H  H17  1  0.87659697  0.21027389  0.91366325  1
  H  H18  1  0.05173797  0.32918953  0.95171261  1
  H  H19  1  0.82599625  0.35493482  0.86930422  1
  H  H20  1  0.55022025  0.77453906  0.65268014  1
  H  H21  1  0.67339060  0.79357389  0.49140610  1
  H  H22  1  0.63451057  0.92314635  0.56290447  1
  H  H23  1  0.10723571  0.76233605  0.57367116  1
  H  H24  1  0.33789371  0.74478929  0.41761223  1
  H  H25  1  0.39993040  0.88933484  0.35198202  1
  H  H26  1  0.95076903  0.62532989  0.94818951  1
  H  H27  1  0.99667381  0.77949849  0.85958275  1
  H  H28  1  0.19952380  0.69575023  0.92255172  1
  H  H29  1  0.94361112  0.76165328  0.11572970  1
  H  H30  1  0.13957398  0.68744118  0.17373834  1
  H  H31  1  0.17410268  0.83358108  0.09188652  1
  Be  Be32  1  0.62046711  0.92795462  0.00077372  1
  Be  Be33  1  0.04901960  0.45334185  0.45845720  1
  B  B34  1  0.19348546  0.85551803  0.51621341  1
  B  B35  1  0.38692279  0.42664597  0.82600968  1
  Br  Br36  1  0.36392533  0.25145572  0.80932940  1
  Br  Br37  1  0.43777426  0.00782454  0.10172467  1
  Br  Br38  1  0.00818980  0.93014973  0.34110938  1
  Br  Br39  1  0.00047358  0.25978288  0.48327859  1
  Br  Br40  1  0.27951239  0.97036350  0.66710482  1
  Br  Br41  1  0.83606762  0.02042198  0.87128133  1
  Br  Br42  1  0.59398357  0.74187549  0.04887267  1
  Br  Br43  1  0.79550347  0.53670504  0.38049781  1
  Br  Br44  1  0.29284363  0.54694247  0.34568767  1
  Br  Br45  1  0.14905303  0.50606345  0.70231672  1
  Br  Br46  1  0.63851183  0.51915845  0.75623024  1
  Br  Br47  1  0.36643566  0.44084813  0.03672329  1
