# generated using pymatgen
data_BeAgH12C2(I3N)2
_symmetry_space_group_name_H-M   'P 1'
_cell_length_a   7.11844739
_cell_length_b   12.63053914
_cell_length_c   9.29332767
_cell_angle_alpha   97.37408796
_cell_angle_beta   89.53672628
_cell_angle_gamma   93.95550279
_symmetry_Int_Tables_number   1
_chemical_formula_structural   BeAgH12C2(I3N)2
_chemical_formula_sum   'Be2 Ag2 H24 C4 I12 N4'
_cell_volume   826.67666608
_cell_formula_units_Z   2
loop_
 _symmetry_equiv_pos_site_id
 _symmetry_equiv_pos_as_xyz
  1  'x, y, z'
loop_
 _atom_site_type_symbol
 _atom_site_label
 _atom_site_symmetry_multiplicity
 _atom_site_fract_x
 _atom_site_fract_y
 _atom_site_fract_z
 _atom_site_occupancy
  C  C0  1  0.35638860  0.26910582  0.34256182  1
  C  C1  1  0.82245539  0.25862798  0.13205439  1
  C  C2  1  0.63090397  0.75920363  0.64804844  1
  C  C3  1  0.13315163  0.75503228  0.87140020  1
  N  N4  1  0.45964995  0.26149081  0.47816943  1
  N  N5  1  0.93366501  0.25385422  0.99597227  1
  N  N6  1  0.58035212  0.74419804  0.49186513  1
  N  N7  1  0.05255187  0.74928742  0.01835340  1
  H  H8  1  0.45071101  0.25320348  0.25009296  1
  H  H9  1  0.23633666  0.20981229  0.33354938  1
  H  H10  1  0.30842530  0.34985992  0.34743686  1
  H  H11  1  0.52470044  0.18997867  0.47452536  1
  H  H12  1  0.56470890  0.32349398  0.49588528  1
  H  H13  1  0.37060149  0.26760749  0.56753338  1
  H  H14  1  0.91969445  0.26529036  0.22415242  1
  H  H15  1  0.73000125  0.18535343  0.12890429  1
  H  H16  1  0.74199572  0.33001719  0.14145636  1
  H  H17  1  0.00166282  0.18357552  0.97703746  1
  H  H18  1  0.03497374  0.31922761  0.00399685  1
  H  H19  1  0.85178235  0.25670270  0.90490298  1
  H  H20  1  0.50215900  0.76450303  0.71290598  1
  H  H21  1  0.70600379  0.69024945  0.67077273  1
  H  H22  1  0.72012559  0.83333790  0.67127141  1
  H  H23  1  0.49818318  0.80345076  0.46542331  1
  H  H24  1  0.50526707  0.67154239  0.46249033  1
  H  H25  1  0.69950244  0.74503941  0.42716553  1
  H  H26  1  0.01934961  0.74023419  0.79151529  1
  H  H27  1  0.20169118  0.83507910  0.86883724  1
  H  H28  1  0.23449206  0.69360967  0.84991528  1
  H  H29  1  0.96087085  0.80948760  0.04378748  1
  H  H30  1  0.97761702  0.67613134  0.02167029  1
  H  H31  1  0.15929913  0.75751487  0.09545511  1
  Be  Be32  1  0.58631307  0.93237655  0.13146565  1
  Be  Be33  1  0.93566406  0.44243931  0.61694806  1
  Ag  Ag34  1  0.09051439  0.98122920  0.36787984  1
  Ag  Ag35  1  0.40705538  0.45073033  0.85995651  1
  I  I36  1  0.40352054  0.21056214  0.83836180  1
  I  I37  1  0.28209775  0.00948634  0.11748169  1
  I  I38  1  0.70308256  0.01042479  0.36959271  1
  I  I39  1  0.93988872  0.25249696  0.60213883  1
  I  I40  1  0.26737913  0.00996566  0.66032187  1
  I  I41  1  0.77955445  0.97894009  0.93474575  1
  I  I42  1  0.54811965  0.74229271  0.11852602  1
  I  I43  1  0.77028411  0.49421014  0.41627674  1
  I  I44  1  0.23356385  0.47480133  0.12217269  1
  I  I45  1  0.10493605  0.78496776  0.47480568  1
  I  I46  1  0.26077354  0.51502717  0.60937035  1
  I  I47  1  0.79800289  0.50502523  0.85114376  1
