# generated using pymatgen
data_BiBH12C2(Br3N)2
_symmetry_space_group_name_H-M   'P 1'
_cell_length_a   8.10329054
_cell_length_b   11.16630016
_cell_length_c   8.24593758
_cell_angle_alpha   82.93202999
_cell_angle_beta   84.94738766
_cell_angle_gamma   84.41992019
_symmetry_Int_Tables_number   1
_chemical_formula_structural   BiBH12C2(Br3N)2
_chemical_formula_sum   'Bi2 B2 H24 C4 Br12 N4'
_cell_volume   734.75388341
_cell_formula_units_Z   2
loop_
 _symmetry_equiv_pos_site_id
 _symmetry_equiv_pos_as_xyz
  1  'x, y, z'
loop_
 _atom_site_type_symbol
 _atom_site_label
 _atom_site_symmetry_multiplicity
 _atom_site_fract_x
 _atom_site_fract_y
 _atom_site_fract_z
 _atom_site_occupancy
  C  C0  1  0.47551421  0.25914839  0.44295655  1
  C  C1  1  0.91868287  0.24323493  0.06407186  1
  C  C2  1  0.53782310  0.75513969  0.59490754  1
  C  C3  1  0.07467299  0.74730002  0.89332706  1
  N  N4  1  0.59930659  0.23437209  0.56857193  1
  N  N5  1  0.04317387  0.26583255  0.92252230  1
  N  N6  1  0.40550196  0.74491817  0.48386841  1
  N  N7  1  0.93602881  0.75248596  0.02371624  1
  H  H8  1  0.54142835  0.27653570  0.32168026  1
  H  H9  1  0.40569122  0.17959817  0.44655153  1
  H  H10  1  0.39085160  0.33751102  0.47148303  1
  H  H11  1  0.67396398  0.15476659  0.55220162  1
  H  H12  1  0.67735283  0.30331413  0.56122899  1
  H  H13  1  0.54266213  0.22424870  0.68645831  1
  H  H14  1  0.98241686  0.22935337  0.17738347  1
  H  H15  1  0.85825731  0.16237031  0.04906049  1
  H  H16  1  0.82651459  0.32180392  0.06411500  1
  H  H17  1  0.12445909  0.18981906  0.90792753  1
  H  H18  1  0.11304847  0.33653158  0.93596526  1
  H  H19  1  0.98704882  0.29058036  0.81380082  1
  H  H20  1  0.48788436  0.73397569  0.72196268  1
  H  H21  1  0.64293671  0.68971053  0.56747822  1
  H  H22  1  0.57771128  0.84692092  0.57383866  1
  H  H23  1  0.29685463  0.80308816  0.50718292  1
  H  H24  1  0.36737399  0.65800265  0.50103639  1
  H  H25  1  0.44557669  0.76519617  0.36119331  1
  H  H26  1  0.02046960  0.75726702  0.77495977  1
  H  H27  1  0.15079976  0.82195101  0.89910435  1
  H  H28  1  0.14851046  0.66023768  0.91250472  1
  H  H29  1  0.86423133  0.83470571  0.00563864  1
  H  H30  1  0.86061318  0.68328701  0.01623009  1
  H  H31  1  0.97689632  0.74291131  0.14057140  1
  B  B32  1  0.38349301  0.99873055  0.00221544  1
  B  B33  1  0.96988304  0.49980760  0.36851648  1
  Bi  Bi34  1  0.05277413  0.99712583  0.51212758  1
  Bi  Bi35  1  0.51667707  0.48799751  0.01631499  1
  Br  Br36  1  0.47610750  0.15291469  0.03990689  1
  Br  Br37  1  0.15843835  0.98253061  0.13056175  1
  Br  Br38  1  0.77011033  0.99060827  0.35171507  1
  Br  Br39  1  0.99846282  0.33968417  0.51104289  1
  Br  Br40  1  0.34117276  0.02305109  0.75315718  1
  Br  Br41  1  0.84523285  0.01921357  0.79177890  1
  Br  Br42  1  0.51987270  0.84000818  0.05488351  1
  Br  Br43  1  0.72199283  0.53077947  0.31528170  1
  Br  Br44  1  0.12162713  0.47833122  0.16166838  1
  Br  Br45  1  0.02383020  0.65261220  0.45339406  1
  Br  Br46  1  0.34404570  0.46707860  0.74428572  1
  Br  Br47  1  0.80204537  0.53348613  0.82994674  1
