# generated using pymatgen
data_BH12PbC2(Br3N)2
_symmetry_space_group_name_H-M   'P 1'
_cell_length_a   7.63008454
_cell_length_b   11.49531188
_cell_length_c   9.09907098
_cell_angle_alpha   85.78078709
_cell_angle_beta   92.28290779
_cell_angle_gamma   81.47478138
_symmetry_Int_Tables_number   1
_chemical_formula_structural   BH12PbC2(Br3N)2
_chemical_formula_sum   'B2 H24 Pb2 C4 Br12 N4'
_cell_volume   786.08174521
_cell_formula_units_Z   2
loop_
 _symmetry_equiv_pos_site_id
 _symmetry_equiv_pos_as_xyz
  1  'x, y, z'
loop_
 _atom_site_type_symbol
 _atom_site_label
 _atom_site_symmetry_multiplicity
 _atom_site_fract_x
 _atom_site_fract_y
 _atom_site_fract_z
 _atom_site_occupancy
  C  C0  1  0.42167977  0.21609739  0.43594710  1
  C  C1  1  0.96697222  0.24221095  0.08613328  1
  C  C2  1  0.46610535  0.78663997  0.45721572  1
  C  C3  1  0.14329361  0.78455228  0.75086043  1
  N  N4  1  0.53868008  0.24386029  0.55847999  1
  N  N5  1  0.06375586  0.27130195  0.95233722  1
  N  N6  1  0.38061415  0.69051083  0.39828256  1
  N  N7  1  0.03358453  0.75426910  0.27806650  1
  H  H8  1  0.43574490  0.27511616  0.33879787  1
  H  H9  1  0.46340625  0.12475143  0.41126572  1
  H  H10  1  0.28418522  0.23056151  0.46851731  1
  H  H11  1  0.66659884  0.24962564  0.52636306  1
  H  H12  1  0.49050382  0.32419095  0.60026824  1
  H  H13  1  0.55108363  0.17911348  0.64574827  1
  H  H14  1  0.04122312  0.26306577  0.18364696  1
  H  H15  1  0.95409761  0.14853871  0.09218402  1
  H  H16  1  0.83602307  0.29643797  0.07697086  1
  H  H17  1  0.19864597  0.23950336  0.96749320  1
  H  H18  1  0.04635848  0.36301597  0.92827377  1
  H  H19  1  0.01411331  0.23140899  0.86348732  1
  H  H20  1  0.40624223  0.81079751  0.56019818  1
  H  H21  1  0.60766504  0.75570276  0.48114718  1
  H  H22  1  0.44928293  0.86260097  0.37531984  1
  H  H23  1  0.24628414  0.72088626  0.34896586  1
  H  H24  1  0.37395797  0.62400380  0.48130956  1
  H  H25  1  0.45743742  0.65097076  0.31945857  1
  H  H26  1  0.12365695  0.73135891  0.65865095  1
  H  H27  1  0.25458142  0.83447624  0.75140470  1
  H  H28  1  0.02450172  0.82222237  0.80432683  1
  H  H29  1  0.96834601  0.83884553  0.25459071  1
  H  H30  1  0.96103315  0.71729189  0.35716792  1
  H  H31  1  0.01391620  0.70959000  0.18649172  1
  B  B32  1  0.44919245  0.99534502  0.99359221  1
  B  B33  1  0.91815657  0.45911629  0.42102034  1
  Pb  Pb34  1  0.05672944  0.98903635  0.56443049  1
  Pb  Pb35  1  0.27437987  0.63297594  0.93736900  1
  Br  Br36  1  0.50599684  0.15144901  0.06050346  1
  Br  Br37  1  0.23314944  0.95268727  0.09422567  1
  Br  Br38  1  0.76201841  0.98935139  0.38460089  1
  Br  Br39  1  0.95383902  0.30033985  0.54786831  1
  Br  Br40  1  0.39291297  0.03090808  0.76704078  1
  Br  Br41  1  0.86396502  0.07338455  0.79144390  1
  Br  Br42  1  0.64325939  0.85722549  0.02377881  1
  Br  Br43  1  0.69842151  0.46441269  0.28228647  1
  Br  Br44  1  0.14245904  0.46634562  0.31186850  1
  Br  Br45  1  0.87729092  0.58560280  0.56043831  1
  Br  Br46  1  0.40399892  0.49329410  0.71195271  1
  Br  Br47  1  0.94067895  0.56508410  0.94850533  1
