# generated using pymatgen
data_TlBH12C2(Br3N)2
_symmetry_space_group_name_H-M   'P 1'
_cell_length_a   8.75806324
_cell_length_b   9.58385428
_cell_length_c   8.78812624
_cell_angle_alpha   89.46336330
_cell_angle_beta   88.89625162
_cell_angle_gamma   90.07337682
_symmetry_Int_Tables_number   1
_chemical_formula_structural   TlBH12C2(Br3N)2
_chemical_formula_sum   'Tl2 B2 H24 C4 Br12 N4'
_cell_volume   737.47017865
_cell_formula_units_Z   2
loop_
 _symmetry_equiv_pos_site_id
 _symmetry_equiv_pos_as_xyz
  1  'x, y, z'
loop_
 _atom_site_type_symbol
 _atom_site_label
 _atom_site_symmetry_multiplicity
 _atom_site_fract_x
 _atom_site_fract_y
 _atom_site_fract_z
 _atom_site_occupancy
  C  C0  1  0.49074338  0.20356581  0.45291928  1
  C  C1  1  0.96377025  0.25199963  0.04295914  1
  C  C2  1  0.54557565  0.77779908  0.57381958  1
  C  C3  1  0.05643145  0.76567185  0.94533952  1
  N  N4  1  0.58697093  0.25107097  0.58000100  1
  N  N5  1  0.03067783  0.27479167  0.88780708  1
  N  N6  1  0.42818934  0.73272450  0.46296809  1
  N  N7  1  0.90993052  0.74284457  0.02881863  1
  H  H8  1  0.48864258  0.28546307  0.36522947  1
  H  H9  1  0.54087281  0.10911191  0.40365287  1
  H  H10  1  0.37465632  0.18477322  0.49688668  1
  H  H11  1  0.69195724  0.28855781  0.54071274  1
  H  H12  1  0.53158793  0.33042162  0.64044657  1
  H  H13  1  0.61385259  0.17030434  0.65517856  1
  H  H14  1  0.05379014  0.25983073  0.12672722  1
  H  H15  1  0.91254807  0.14774874  0.04739811  1
  H  H16  1  0.87602038  0.33128115  0.06265628  1
  H  H17  1  0.11510549  0.20160952  0.86270400  1
  H  H18  1  0.07918749  0.37227698  0.87065321  1
  H  H19  1  0.94708755  0.26303158  0.80687434  1
  H  H20  1  0.48883988  0.79483727  0.68397663  1
  H  H21  1  0.62989287  0.69421159  0.58439935  1
  H  H22  1  0.60177948  0.87270374  0.53094415  1
  H  H23  1  0.34301325  0.80632109  0.45084296  1
  H  H24  1  0.37662712  0.63993247  0.50282187  1
  H  H25  1  0.47682151  0.71763744  0.35637624  1
  H  H26  1  0.08743301  0.67051982  0.88379787  1
  H  H27  1  0.14480469  0.79183337  0.02668842  1
  H  H28  1  0.04128288  0.85223192  0.86506629  1
  H  H29  1  0.86938041  0.83247580  0.08464421  1
  H  H30  1  0.82681437  0.70307708  0.95756609  1
  H  H31  1  0.92338840  0.66849184  0.11369900  1
  B  B32  1  0.41241460  0.01769324  0.00429428  1
  B  B33  1  0.95175346  0.50768357  0.40713064  1
  Tl  Tl34  1  0.04420646  0.96496417  0.49346771  1
  Tl  Tl35  1  0.43833954  0.48485766  0.00776794  1
  Br  Br36  1  0.56551155  0.17210674  0.01834062  1
  Br  Br37  1  0.25675461  0.03216542  0.17678696  1
  Br  Br38  1  0.79423834  0.96499122  0.28623056  1
  Br  Br39  1  0.96920485  0.31227701  0.49452029  1
  Br  Br40  1  0.30745164  0.03505988  0.79669435  1
  Br  Br41  1  0.81997428  0.01436682  0.74093678  1
  Br  Br42  1  0.51188770  0.82684462  0.01554129  1
  Br  Br43  1  0.74351747  0.51991452  0.30375159  1
  Br  Br44  1  0.12758950  0.53877637  0.25341544  1
  Br  Br45  1  0.96530462  0.65174268  0.56913238  1
  Br  Br46  1  0.31361454  0.47069948  0.69349721  1
  Br  Br47  1  0.73058474  0.49678272  0.84421311  1
