# generated using pymatgen
data_HgBH12C2(Br3N)2
_symmetry_space_group_name_H-M   'P 1'
_cell_length_a   8.43794977
_cell_length_b   9.70632275
_cell_length_c   8.98498349
_cell_angle_alpha   88.73592305
_cell_angle_beta   86.26796708
_cell_angle_gamma   88.85648787
_symmetry_Int_Tables_number   1
_chemical_formula_structural   HgBH12C2(Br3N)2
_chemical_formula_sum   'Hg2 B2 H24 C4 Br12 N4'
_cell_volume   734.01754541
_cell_formula_units_Z   2
loop_
 _symmetry_equiv_pos_site_id
 _symmetry_equiv_pos_as_xyz
  1  'x, y, z'
loop_
 _atom_site_type_symbol
 _atom_site_label
 _atom_site_symmetry_multiplicity
 _atom_site_fract_x
 _atom_site_fract_y
 _atom_site_fract_z
 _atom_site_occupancy
  C  C0  1  0.43306462  0.21713756  0.46047834  1
  C  C1  1  0.96373052  0.28380410  0.08382998  1
  C  C2  1  0.51544740  0.75419456  0.58144844  1
  C  C3  1  0.06167328  0.73406372  0.92856721  1
  N  N4  1  0.58291889  0.18716322  0.53388658  1
  N  N5  1  0.02108810  0.24471522  0.93101420  1
  N  N6  1  0.47128979  0.79185789  0.42768142  1
  N  N7  1  0.93021909  0.81092966  0.00954870  1
  H  H8  1  0.46042039  0.26822794  0.35252915  1
  H  H9  1  0.37421429  0.11977379  0.44274214  1
  H  H10  1  0.35584591  0.28329040  0.53221653  1
  H  H11  1  0.66057231  0.12184498  0.46807831  1
  H  H12  1  0.64338675  0.27548431  0.55287497  1
  H  H13  1  0.56355550  0.13759500  0.63698831  1
  H  H14  1  0.06214688  0.32807262  0.13942526  1
  H  H15  1  0.92044098  0.19201098  0.14588156  1
  H  H16  1  0.86724176  0.35974965  0.07452037  1
  H  H17  1  0.11719031  0.17643472  0.93229672  1
  H  H18  1  0.06152346  0.32924571  0.86676953  1
  H  H19  1  0.93448053  0.19346203  0.87429963  1
  H  H20  1  0.40923700  0.72201719  0.64876810  1
  H  H21  1  0.60327389  0.66974184  0.57631790  1
  H  H22  1  0.56809301  0.84366403  0.63026662  1
  H  H23  1  0.37064288  0.85669315  0.43209041  1
  H  H24  1  0.44277629  0.70712314  0.36702916  1
  H  H25  1  0.56661923  0.84391698  0.36947872  1
  H  H26  1  0.01397691  0.68465013  0.83323027  1
  H  H27  1  0.15360946  0.80684941  0.88936485  1
  H  H28  1  0.11178519  0.65624212  0.00306534  1
  H  H29  1  0.88279173  0.88770027  0.93786835  1
  H  H30  1  0.83709988  0.74785505  0.04286837  1
  H  H31  1  0.96370723  0.85957758  0.10386890  1
  B  B32  1  0.41447246  0.01622216  0.01653279  1
  B  B33  1  0.89175620  0.47989479  0.43365168  1
  Hg  Hg34  1  0.11041437  0.95145101  0.54071992  1
  Hg  Hg35  1  0.45172228  0.47006525  0.96272777  1
  Br  Br36  1  0.55557415  0.17451142  0.06081698  1
  Br  Br37  1  0.22308879  0.01334620  0.16623988  1
  Br  Br38  1  0.78549962  0.96691639  0.32408542  1
  Br  Br39  1  0.97657349  0.30358458  0.48600427  1
  Br  Br40  1  0.33549925  0.04571196  0.80776767  1
  Br  Br41  1  0.81890959  0.02641653  0.75798403  1
  Br  Br42  1  0.52484519  0.83035501  0.02310286  1
  Br  Br43  1  0.70310294  0.49130241  0.32318581  1
  Br  Br44  1  0.30261806  0.51823099  0.21765879  1
  Br  Br45  1  0.98494208  0.64549223  0.48781132  1
  Br  Br46  1  0.26185737  0.46391533  0.74183144  1
  Br  Br47  1  0.73508445  0.50757307  0.84088164  1
