# generated using pymatgen
data_BH12AuC2(Br3N)2
_symmetry_space_group_name_H-M   'P 1'
_cell_length_a   8.01320725
_cell_length_b   9.87835480
_cell_length_c   9.03543691
_cell_angle_alpha   91.40590422
_cell_angle_beta   90.99320468
_cell_angle_gamma   87.38035264
_symmetry_Int_Tables_number   1
_chemical_formula_structural   BH12AuC2(Br3N)2
_chemical_formula_sum   'B2 H24 Au2 C4 Br12 N4'
_cell_volume   714.16418307
_cell_formula_units_Z   2
loop_
 _symmetry_equiv_pos_site_id
 _symmetry_equiv_pos_as_xyz
  1  'x, y, z'
loop_
 _atom_site_type_symbol
 _atom_site_label
 _atom_site_symmetry_multiplicity
 _atom_site_fract_x
 _atom_site_fract_y
 _atom_site_fract_z
 _atom_site_occupancy
  C  C0  1  0.47189746  0.27177430  0.42828043  1
  C  C1  1  0.93489434  0.22223145  0.08253475  1
  C  C2  1  0.56187659  0.73253326  0.59468802  1
  C  C3  1  0.07078547  0.77853938  0.91466442  1
  N  N4  1  0.57273671  0.23491306  0.56206027  1
  N  N5  1  0.02587590  0.21493720  0.94077943  1
  N  N6  1  0.45532611  0.77179487  0.46484576  1
  N  N7  1  0.93341020  0.78655571  0.02308146  1
  H  H8  1  0.55586887  0.27615154  0.33454246  1
  H  H9  1  0.38028355  0.19417988  0.40877434  1
  H  H10  1  0.40620633  0.36984238  0.44863401  1
  H  H11  1  0.62953967  0.13842516  0.55199762  1
  H  H12  1  0.66830760  0.30053446  0.58138967  1
  H  H13  1  0.49906549  0.23697098  0.65510995  1
  H  H14  1  0.02290097  0.23511204  0.17481133  1
  H  H15  1  0.86831520  0.12883550  0.09382007  1
  H  H16  1  0.84559244  0.30946052  0.07941819  1
  H  H17  1  0.12954648  0.14943138  0.94382800  1
  H  H18  1  0.06820850  0.30833145  0.91106513  1
  H  H19  1  0.94678984  0.17688627  0.85690691  1
  H  H20  1  0.48021854  0.70686578  0.68471621  1
  H  H21  1  0.64521255  0.64616956  0.56368502  1
  H  H22  1  0.63545631  0.81942329  0.62801567  1
  H  H23  1  0.37695438  0.85504778  0.49624742  1
  H  H24  1  0.37926051  0.69574034  0.42820916  1
  H  H25  1  0.53001518  0.80054849  0.37951818  1
  H  H26  1  0.01485664  0.76408661  0.80441296  1
  H  H27  1  0.13483287  0.87379165  0.91773506  1
  H  H28  1  0.15646506  0.69277293  0.94084519  1
  H  H29  1  0.84826762  0.86473962  0.99344216  1
  H  H30  1  0.87181707  0.69556975  0.01812046  1
  H  H31  1  0.97389422  0.80265910  0.13077333  1
  B  B32  1  0.40041231  0.98216185  0.09336186  1
  B  B33  1  0.98375788  0.51719543  0.36169739  1
  Au  Au34  1  0.98317437  0.00093567  0.52387244  1
  Au  Au35  1  0.54790363  0.46908219  0.84653503  1
  Br  Br36  1  0.45981285  0.15598757  0.03168125  1
  Br  Br37  1  0.21971076  0.97647734  0.23118912  1
  Br  Br38  1  0.75017661  0.97848891  0.33837404  1
  Br  Br39  1  0.97869000  0.33875246  0.46736991  1
  Br  Br40  1  0.25541936  0.01900008  0.65781378  1
  Br  Br41  1  0.76822083  0.01799742  0.78868946  1
  Br  Br42  1  0.49884829  0.81365856  0.02271782  1
  Br  Br43  1  0.75195125  0.55488073  0.26636663  1
  Br  Br44  1  0.16437986  0.50683578  0.20335554  1
  Br  Br45  1  0.03970867  0.67023009  0.50345441  1
  Br  Br46  1  0.26261673  0.43417849  0.77702729  1
  Br  Br47  1  0.84056166  0.50936003  0.84983759  1
