# generated using pymatgen
data_BH12OsC2(Br3N)2
_symmetry_space_group_name_H-M   'P 1'
_cell_length_a   7.23511967
_cell_length_b   10.46020929
_cell_length_c   8.59762514
_cell_angle_alpha   95.80273976
_cell_angle_beta   89.15994730
_cell_angle_gamma   84.39909821
_symmetry_Int_Tables_number   1
_chemical_formula_structural   BH12OsC2(Br3N)2
_chemical_formula_sum   'B2 H24 Os2 C4 Br12 N4'
_cell_volume   644.05335042
_cell_formula_units_Z   2
loop_
 _symmetry_equiv_pos_site_id
 _symmetry_equiv_pos_as_xyz
  1  'x, y, z'
loop_
 _atom_site_type_symbol
 _atom_site_label
 _atom_site_symmetry_multiplicity
 _atom_site_fract_x
 _atom_site_fract_y
 _atom_site_fract_z
 _atom_site_occupancy
  C  C0  1  0.51111970  0.26018499  0.47452005  1
  C  C1  1  0.95957563  0.24909595  0.01644357  1
  C  C2  1  0.48976880  0.70526391  0.51886703  1
  C  C3  1  0.01443583  0.81519179  0.93641723  1
  N  N4  1  0.56861092  0.28250067  0.63903284  1
  N  N5  1  0.07475147  0.19772065  0.87674445  1
  N  N6  1  0.43732713  0.72450292  0.35508083  1
  N  N7  1  0.06889116  0.73086069  0.05989988  1
  H  H8  1  0.63025007  0.21262509  0.40384827  1
  H  H9  1  0.39708234  0.19866552  0.47017337  1
  H  H10  1  0.46572245  0.35298706  0.43251862  1
  H  H11  1  0.68601831  0.33182136  0.64361191  1
  H  H12  1  0.46274183  0.33783246  0.71141716  1
  H  H13  1  0.60680150  0.19401171  0.68151795  1
  H  H14  1  0.04583091  0.30277425  0.09751757  1
  H  H15  1  0.90612534  0.16998490  0.07114369  1
  H  H16  1  0.84571455  0.31567132  0.98074811  1
  H  H17  1  0.18784342  0.13709195  0.90427025  1
  H  H18  1  0.12854899  0.27652063  0.82906018  1
  H  H19  1  0.00142175  0.14410946  0.79431316  1
  H  H20  1  0.36594322  0.72807556  0.59567305  1
  H  H21  1  0.54375751  0.60492517  0.52605011  1
  H  H22  1  0.59581613  0.76877992  0.55640893  1
  H  H23  1  0.04250549  0.82810464  0.41062481  1
  H  H24  1  0.33913134  0.66130635  0.32582481  1
  H  H25  1  0.36669991  0.81561649  0.36074042  1
  H  H26  1  0.93401894  0.90277124  0.99065425  1
  H  H27  1  0.13742361  0.83987094  0.87485731  1
  H  H28  1  0.92708262  0.76313091  0.85464193  1
  H  H29  1  0.13987237  0.77868217  0.14726475  1
  H  H30  1  0.94428835  0.70498533  0.11377899  1
  H  H31  1  0.14663629  0.64543678  0.01308949  1
  B  B32  1  0.48928297  0.99838104  0.13713978  1
  B  B33  1  0.99270118  0.48109716  0.41060381  1
  Os  Os34  1  0.00117673  0.98007499  0.42767809  1
  Os  Os35  1  0.63492098  0.68737823  0.15964309  1
  Br  Br36  1  0.53146228  0.16182712  0.05520352  1
  Br  Br37  1  0.20352929  0.03676549  0.21437228  1
  Br  Br38  1  0.70092882  0.91839680  0.30163004  1
  Br  Br39  1  0.99395456  0.30903302  0.50573035  1
  Br  Br40  1  0.26895589  0.00096637  0.60370556  1
  Br  Br41  1  0.79881364  0.99681621  0.67125681  1
  Br  Br42  1  0.50927394  0.84276883  0.97698222  1
  Br  Br43  1  0.74556784  0.48941665  0.28548947  1
  Br  Br44  1  0.20900644  0.47038872  0.25834031  1
  Br  Br45  1  0.98533972  0.63244305  0.56510703  1
  Br  Br46  1  0.25459841  0.46039078  0.84390167  1
  Br  Br47  1  0.70875313  0.55283100  0.91675760  1
