# generated using pymatgen
data_HfBH12C2(Br3N)2
_symmetry_space_group_name_H-M   'P 1'
_cell_length_a   7.62001997
_cell_length_b   10.94488547
_cell_length_c   9.29741414
_cell_angle_alpha   93.97486495
_cell_angle_beta   93.65396833
_cell_angle_gamma   88.93693348
_symmetry_Int_Tables_number   1
_chemical_formula_structural   HfBH12C2(Br3N)2
_chemical_formula_sum   'Hf2 B2 H24 C4 Br12 N4'
_cell_volume   771.89111401
_cell_formula_units_Z   2
loop_
 _symmetry_equiv_pos_site_id
 _symmetry_equiv_pos_as_xyz
  1  'x, y, z'
loop_
 _atom_site_type_symbol
 _atom_site_label
 _atom_site_symmetry_multiplicity
 _atom_site_fract_x
 _atom_site_fract_y
 _atom_site_fract_z
 _atom_site_occupancy
  C  C0  1  0.49528702  0.19017966  0.45172102  1
  C  C1  1  0.98968082  0.23142628  0.01017801  1
  C  C2  1  0.44452297  0.75435049  0.43651940  1
  C  C3  1  0.09888570  0.74468679  0.98836780  1
  N  N4  1  0.56699937  0.24247731  0.59606627  1
  N  N5  1  0.09934324  0.27311247  0.90043251  1
  N  N6  1  0.41242027  0.72905798  0.27974780  1
  N  N7  1  0.05996213  0.73743040  0.14183097  1
  H  H8  1  0.56469935  0.23066469  0.36760540  1
  H  H9  1  0.51731683  0.09106535  0.44702651  1
  H  H10  1  0.35468182  0.21212860  0.44069509  1
  H  H11  1  0.70320343  0.24907047  0.59801429  1
  H  H12  1  0.51418584  0.32887847  0.62021922  1
  H  H13  1  0.53616466  0.18697840  0.67651916  1
  H  H14  1  0.05866978  0.21766081  0.11584606  1
  H  H15  1  0.92878949  0.14439036  0.97026535  1
  H  H16  1  0.88273506  0.29846727  0.02982210  1
  H  H17  1  0.17215853  0.20127503  0.85831349  1
  H  H18  1  0.18736199  0.33631182  0.94590973  1
  H  H19  1  0.01610863  0.44171866  0.73523209  1
  H  H20  1  0.34155972  0.71228584  0.49326366  1
  H  H21  1  0.57393970  0.72047903  0.47822794  1
  H  H22  1  0.43637138  0.85337937  0.46297700  1
  H  H23  1  0.12763278  0.90539364  0.41152092  1
  H  H24  1  0.44607436  0.63938935  0.25372574  1
  H  H25  1  0.49687670  0.77977451  0.22740556  1
  H  H26  1  0.97688930  0.75409963  0.92075647  1
  H  H27  1  0.18345104  0.82255506  0.97443048  1
  H  H28  1  0.16814380  0.66061462  0.95108716  1
  H  H29  1  0.99619458  0.81679552  0.17733449  1
  H  H30  1  0.82397857  0.70492930  0.31348667  1
  H  H31  1  0.18422079  0.73833016  0.20366976  1
  B  B32  1  0.46691654  0.02061440  0.03843872  1
  B  B33  1  0.09460560  0.52045300  0.68686199  1
  Hf  Hf34  1  0.99682033  0.01928470  0.51067176  1
  Hf  Hf35  1  0.89925370  0.57696797  0.19656079  1
  Br  Br36  1  0.54790699  0.17495739  0.98509377  1
  Br  Br37  1  0.28831695  0.01963470  0.17266491  1
  Br  Br38  1  0.81384653  0.99657805  0.27087443  1
  Br  Br39  1  0.00849455  0.24904485  0.49882940  1
  Br  Br40  1  0.26316696  0.00563212  0.69023073  1
  Br  Br41  1  0.76709180  0.95906883  0.66980847  1
  Br  Br42  1  0.55819612  0.86719578  0.96321481  1
  Br  Br43  1  0.68597437  0.45876181  0.33147240  1
  Br  Br44  1  0.18256151  0.46232570  0.24697985  1
  Br  Br45  1  0.97995308  0.65488190  0.60176108  1
  Br  Br46  1  0.34850180  0.51449452  0.70618322  1
  Br  Br47  1  0.73990727  0.55082519  0.95243217  1
