# generated using pymatgen
data_BaBH12C2(Br3N)2
_symmetry_space_group_name_H-M   'P 1'
_cell_length_a   9.47702854
_cell_length_b   10.40757374
_cell_length_c   8.03328559
_cell_angle_alpha   88.68040811
_cell_angle_beta   78.88849742
_cell_angle_gamma   89.14992909
_symmetry_Int_Tables_number   1
_chemical_formula_structural   BaBH12C2(Br3N)2
_chemical_formula_sum   'Ba2 B2 H24 C4 Br12 N4'
_cell_volume   777.24285626
_cell_formula_units_Z   2
loop_
 _symmetry_equiv_pos_site_id
 _symmetry_equiv_pos_as_xyz
  1  'x, y, z'
loop_
 _atom_site_type_symbol
 _atom_site_label
 _atom_site_symmetry_multiplicity
 _atom_site_fract_x
 _atom_site_fract_y
 _atom_site_fract_z
 _atom_site_occupancy
  C  C0  1  0.44945357  0.25356742  0.44153706  1
  C  C1  1  0.92365022  0.26653099  0.00628021  1
  C  C2  1  0.50129434  0.73814646  0.51659972  1
  C  C3  1  0.10244908  0.75478957  0.98999251  1
  N  N4  1  0.56677545  0.24992844  0.54016981  1
  N  N5  1  0.05853972  0.26125415  0.87661452  1
  N  N6  1  0.41555975  0.65452573  0.42907372  1
  N  N7  1  0.97278301  0.79125502  0.11440028  1
  H  H8  1  0.49436651  0.28303442  0.31041248  1
  H  H9  1  0.40813841  0.15629841  0.43817736  1
  H  H10  1  0.36355998  0.31867205  0.50113608  1
  H  H11  1  0.64354891  0.17943253  0.48659126  1
  H  H12  1  0.61713254  0.33740843  0.53773866  1
  H  H13  1  0.52927378  0.22530137  0.66689623  1
  H  H14  1  0.94806671  0.24148756  0.13070868  1
  H  H15  1  0.84987089  0.19543794  0.97398598  1
  H  H16  1  0.87817678  0.36395409  0.00528438  1
  H  H17  1  0.10849143  0.17192094  0.87712458  1
  H  H18  1  0.13274846  0.33043957  0.89225543  1
  H  H19  1  0.03576748  0.27385645  0.75550575  1
  H  H20  1  0.43687354  0.78429515  0.62864123  1
  H  H21  1  0.58262675  0.67751441  0.56265082  1
  H  H22  1  0.55178069  0.81482816  0.42917765  1
  H  H23  1  0.18136998  0.83557605  0.36612226  1
  H  H24  1  0.37865854  0.58089213  0.51411927  1
  H  H25  1  0.32342942  0.70414732  0.41743847  1
  H  H26  1  0.09899729  0.79205030  0.86130478  1
  H  H27  1  0.19925613  0.79457768  0.02583100  1
  H  H28  1  0.11316755  0.64994795  0.98547317  1
  H  H29  1  0.95031505  0.88638743  0.09120177  1
  H  H30  1  0.88839996  0.74409894  0.07963918  1
  H  H31  1  0.14951349  0.79544188  0.30571989  1
  B  B32  1  0.40405153  0.04650255  0.99032432  1
  B  B33  1  0.99798335  0.43735520  0.40512293  1
  Ba  Ba34  1  0.86434197  0.80505362  0.49617857  1
  Ba  Ba35  1  0.47678999  0.56787545  0.08695263  1
  Br  Br36  1  0.54976060  0.19249409  0.96875530  1
  Br  Br37  1  0.23736442  0.07949764  0.18046737  1
  Br  Br38  1  0.73409089  0.02820236  0.31571276  1
  Br  Br39  1  0.96581924  0.25841608  0.49653291  1
  Br  Br40  1  0.33171746  0.03098234  0.76968955  1
  Br  Br41  1  0.93194298  0.98856775  0.75435220  1
  Br  Br42  1  0.51538266  0.88091948  0.02733568  1
  Br  Br43  1  0.80084045  0.50704487  0.35521329  1
  Br  Br44  1  0.14506065  0.44202733  0.18561873  1
  Br  Br45  1  0.07290588  0.54888816  0.56899417  1
  Br  Br46  1  0.35537124  0.46759861  0.78593071  1
  Br  Br47  1  0.76256499  0.61165384  0.85531128  1
