# generated using pymatgen
data_BSbH12C2(Br3N)2
_symmetry_space_group_name_H-M   'P 1'
_cell_length_a   8.43742683
_cell_length_b   10.90162734
_cell_length_c   8.06409988
_cell_angle_alpha   87.57575208
_cell_angle_beta   87.34321620
_cell_angle_gamma   85.97248371
_symmetry_Int_Tables_number   1
_chemical_formula_structural   BSbH12C2(Br3N)2
_chemical_formula_sum   'B2 Sb2 H24 C4 Br12 N4'
_cell_volume   738.55478964
_cell_formula_units_Z   2
loop_
 _symmetry_equiv_pos_site_id
 _symmetry_equiv_pos_as_xyz
  1  'x, y, z'
loop_
 _atom_site_type_symbol
 _atom_site_label
 _atom_site_symmetry_multiplicity
 _atom_site_fract_x
 _atom_site_fract_y
 _atom_site_fract_z
 _atom_site_occupancy
  C  C0  1  0.47398632  0.25323671  0.46275024  1
  C  C1  1  0.93477108  0.24138276  0.03412496  1
  C  C2  1  0.53896248  0.75860252  0.55204319  1
  C  C3  1  0.04717483  0.74716220  0.93108100  1
  N  N4  1  0.60732499  0.24325760  0.57897525  1
  N  N5  1  0.07270276  0.26962455  0.92048705  1
  N  N6  1  0.39578492  0.75153042  0.45173607  1
  N  N7  1  0.91306181  0.75275383  0.05773897  1
  H  H8  1  0.52289097  0.26926216  0.33615344  1
  H  H9  1  0.41525908  0.16668602  0.47088957  1
  H  H10  1  0.38986060  0.32911014  0.49991791  1
  H  H11  1  0.68941034  0.17166531  0.54615004  1
  H  H12  1  0.66696846  0.32314323  0.57556515  1
  H  H13  1  0.56802256  0.22579052  0.70110827  1
  H  H14  1  0.97489350  0.23195343  0.16142567  1
  H  H15  1  0.88890230  0.15539430  0.99840706  1
  H  H16  1  0.84301211  0.31703723  0.02279037  1
  H  H17  1  0.15827775  0.19687290  0.91764181  1
  H  H18  1  0.12617914  0.34560020  0.95998610  1
  H  H19  1  0.03965049  0.29013713  0.79936212  1
  H  H20  1  0.50409581  0.74555056  0.68361977  1
  H  H21  1  0.62721556  0.68533102  0.51502806  1
  H  H22  1  0.58747556  0.84839038  0.52757835  1
  H  H23  1  0.30395214  0.81605702  0.48499666  1
  H  H24  1  0.34784679  0.66694779  0.47001060  1
  H  H25  1  0.42257131  0.76604916  0.32492284  1
  H  H26  1  0.99707172  0.75169345  0.80817445  1
  H  H27  1  0.11816778  0.82568290  0.94527106  1
  H  H28  1  0.11879700  0.66081201  0.94995959  1
  H  H29  1  0.84314462  0.83420238  0.04204436  1
  H  H30  1  0.84110411  0.68078979  0.04356393  1
  H  H31  1  0.95097132  0.74718124  0.17848473  1
  B  B32  1  0.38115253  0.99550911  0.00206273  1
  B  B33  1  0.99357520  0.49137860  0.37720077  1
  Sb  Sb34  1  0.00821907  0.99549698  0.53668277  1
  Sb  Sb35  1  0.53829979  0.48093688  0.00352986  1
  Br  Br36  1  0.49043820  0.15352100  0.02115970  1
  Br  Br37  1  0.18475093  0.00054514  0.15927621  1
  Br  Br38  1  0.77242731  0.00441288  0.32643278  1
  Br  Br39  1  0.02184668  0.32796885  0.50543044  1
  Br  Br40  1  0.31000539  0.00201141  0.75798473  1
  Br  Br41  1  0.80036646  0.98441616  0.78743338  1
  Br  Br42  1  0.49998671  0.82911464  0.04310577  1
  Br  Br43  1  0.76105532  0.50560466  0.30263258  1
  Br  Br44  1  0.15704888  0.48212034  0.18167908  1
  Br  Br45  1  0.02220521  0.65439481  0.48135855  1
  Br  Br46  1  0.34302899  0.49385806  0.75049137  1
  Br  Br47  1  0.78610687  0.52989791  0.81184722  1
