# generated using pymatgen
data_SnBH12C2(Br3N)2
_symmetry_space_group_name_H-M   'P 1'
_cell_length_a   8.28808782
_cell_length_b   10.29026503
_cell_length_c   8.87665386
_cell_angle_alpha   83.17282005
_cell_angle_beta   85.43775780
_cell_angle_gamma   83.54552848
_symmetry_Int_Tables_number   1
_chemical_formula_structural   SnBH12C2(Br3N)2
_chemical_formula_sum   'Sn2 B2 H24 C4 Br12 N4'
_cell_volume   745.24485762
_cell_formula_units_Z   2
loop_
 _symmetry_equiv_pos_site_id
 _symmetry_equiv_pos_as_xyz
  1  'x, y, z'
loop_
 _atom_site_type_symbol
 _atom_site_label
 _atom_site_symmetry_multiplicity
 _atom_site_fract_x
 _atom_site_fract_y
 _atom_site_fract_z
 _atom_site_occupancy
  C  C0  1  0.45702297  0.24178031  0.44504536  1
  C  C1  1  0.92703543  0.23972294  0.05761511  1
  C  C2  1  0.52252836  0.76892610  0.56532784  1
  C  C3  1  0.08685617  0.74474936  0.93267173  1
  N  N4  1  0.60457281  0.21298364  0.53306178  1
  N  N5  1  0.04099676  0.26522370  0.92222297  1
  N  N6  1  0.38755756  0.79566821  0.46409038  1
  N  N7  1  0.94689467  0.77679723  0.04184890  1
  H  H8  1  0.49053588  0.29316079  0.33388837  1
  H  H9  1  0.41121259  0.14871373  0.42957742  1
  H  H10  1  0.36397050  0.30321332  0.50653105  1
  H  H11  1  0.69163543  0.14666088  0.48089335  1
  H  H12  1  0.66019439  0.29641644  0.54202424  1
  H  H13  1  0.57857187  0.16874781  0.64212684  1
  H  H14  1  0.99576593  0.21833258  0.15907697  1
  H  H15  1  0.86380774  0.15534234  0.04168731  1
  H  H16  1  0.84203904  0.32798080  0.06735284  1
  H  H17  1  0.11900145  0.18170664  0.90322721  1
  H  H18  1  0.11099189  0.34043281  0.93333873  1
  H  H19  1  0.97885923  0.29117472  0.82467481  1
  H  H20  1  0.47341184  0.75912142  0.68432349  1
  H  H21  1  0.60293606  0.67878210  0.54583649  1
  H  H22  1  0.59788663  0.85124468  0.54944262  1
  H  H23  1  0.06297489  0.80914923  0.61276560  1
  H  H24  1  0.32698215  0.71354131  0.46827860  1
  H  H25  1  0.43291100  0.81406905  0.35367365  1
  H  H26  1  0.04183640  0.70636775  0.83588633  1
  H  H27  1  0.14198001  0.83532548  0.89315813  1
  H  H28  1  0.17343404  0.67148137  0.99038430  1
  H  H29  1  0.86738619  0.85083511  0.98837117  1
  H  H30  1  0.88448679  0.69588048  0.07766500  1
  H  H31  1  0.98118602  0.81191815  0.13803860  1
  B  B32  1  0.40887283  0.99918660  0.00407365  1
  B  B33  1  0.97393975  0.47931048  0.36469178  1
  Sn  Sn34  1  0.10370706  0.97059620  0.53330010  1
  Sn  Sn35  1  0.50870687  0.50773604  0.97749413  1
  Br  Br36  1  0.52879069  0.14494065  0.05923009  1
  Br  Br37  1  0.20472372  0.98675204  0.14040539  1
  Br  Br38  1  0.83370563  0.98434505  0.35191186  1
  Br  Br39  1  0.98584729  0.31562904  0.51380864  1
  Br  Br40  1  0.35205681  0.03850054  0.78254211  1
  Br  Br41  1  0.86326239  0.03511135  0.77704966  1
  Br  Br42  1  0.54569568  0.81993808  0.03300191  1
  Br  Br43  1  0.74237514  0.50957282  0.28420723  1
  Br  Br44  1  0.14879507  0.45019459  0.18966991  1
  Br  Br45  1  0.01415868  0.63688934  0.45751675  1
  Br  Br46  1  0.33816946  0.47148543  0.75134340  1
  Br  Br47  1  0.77975398  0.53443952  0.81594281  1
