# generated using pymatgen
data_BeH12PdC2(I3N)2
_symmetry_space_group_name_H-M   'P 1'
_cell_length_a   7.10685803
_cell_length_b   11.61562723
_cell_length_c   9.72537034
_cell_angle_alpha   95.48057350
_cell_angle_beta   89.98071433
_cell_angle_gamma   90.00718612
_symmetry_Int_Tables_number   1
_chemical_formula_structural   BeH12PdC2(I3N)2
_chemical_formula_sum   'Be2 H24 Pd2 C4 I12 N4'
_cell_volume   799.16518966
_cell_formula_units_Z   2
loop_
 _symmetry_equiv_pos_site_id
 _symmetry_equiv_pos_as_xyz
  1  'x, y, z'
loop_
 _atom_site_type_symbol
 _atom_site_label
 _atom_site_symmetry_multiplicity
 _atom_site_fract_x
 _atom_site_fract_y
 _atom_site_fract_z
 _atom_site_occupancy
  C  C0  1  0.33544349  0.25591232  0.37119156  1
  C  C1  1  0.86430364  0.26524883  0.11772590  1
  C  C2  1  0.63537828  0.76542629  0.61787405  1
  C  C3  1  0.16479303  0.75581077  0.87141586  1
  N  N4  1  0.42934681  0.25286681  0.50676373  1
  N  N5  1  0.97285270  0.24103437  0.98817251  1
  N  N6  1  0.52674598  0.74101760  0.48844047  1
  N  N7  1  0.07100285  0.75285263  0.00709089  1
  H  H8  1  0.43958337  0.23777949  0.28912377  1
  H  H9  1  0.22530067  0.18968195  0.36216774  1
  H  H10  1  0.27598802  0.34223734  0.36547390  1
  H  H11  1  0.46339224  0.16911540  0.52680205  1
  H  H12  1  0.55085994  0.30296874  0.51007045  1
  H  H13  1  0.34470580  0.28744749  0.58737821  1
  H  H14  1  0.95657135  0.25466517  0.20571456  1
  H  H15  1  0.74559947  0.20514864  0.11646736  1
  H  H16  1  0.81356344  0.35440744  0.12285127  1
  H  H17  1  0.02473415  0.15723988  0.97777713  1
  H  H18  1  0.08774861  0.29672387  0.98499686  1
  H  H19  1  0.88991217  0.25004590  0.90215587  1
  H  H20  1  0.54323108  0.75482279  0.70597117  1
  H  H21  1  0.75422877  0.70545026  0.61657415  1
  H  H22  1  0.68590129  0.85463155  0.62285773  1
  H  H23  1  0.41182061  0.79666825  0.48526158  1
  H  H24  1  0.47483888  0.65721900  0.47825976  1
  H  H25  1  0.60959632  0.74993321  0.40231426  1
  H  H26  1  0.06054735  0.73772882  0.78946016  1
  H  H27  1  0.22440437  0.84209600  0.86560666  1
  H  H28  1  0.27480093  0.68950731  0.86230117  1
  H  H29  1  0.94943472  0.80288399  0.01044724  1
  H  H30  1  0.03711430  0.66910647  0.02730367  1
  H  H31  1  0.15568133  0.78756365  0.08758225  1
  Be  Be32  1  0.57929035  0.92860425  0.09245748  1
  Be  Be33  1  0.92086471  0.42869812  0.59244051  1
  Pd  Pd34  1  0.00071279  0.00675632  0.47949695  1
  Pd  Pd35  1  0.49927888  0.50672346  0.97949124  1
  I  I36  1  0.44674667  0.29032750  0.88620312  1
  I  I37  1  0.27759687  0.01326498  0.10889375  1
  I  I38  1  0.69264089  0.01477405  0.32595167  1
  I  I39  1  0.91259802  0.21559698  0.61966800  1
  I  I40  1  0.28967572  0.99722070  0.64768206  1
  I  I41  1  0.76052442  0.97081924  0.90289663  1
  I  I42  1  0.58734230  0.71551938  0.11981916  1
  I  I43  1  0.73990049  0.47101717  0.40288163  1
  I  I44  1  0.21009895  0.49707781  0.14759401  1
  I  I45  1  0.05321758  0.79033010  0.38636739  1
  I  I46  1  0.22269247  0.51320918  0.60894564  1
  I  I47  1  0.80741664  0.51489680  0.82591341  1
