# generated using pymatgen
data_InBH12C2(Br3N)2
_symmetry_space_group_name_H-M   'P 1'
_cell_length_a   8.45661938
_cell_length_b   9.63527757
_cell_length_c   9.10363426
_cell_angle_alpha   86.94547542
_cell_angle_beta   90.02307659
_cell_angle_gamma   89.64082188
_symmetry_Int_Tables_number   1
_chemical_formula_structural   InBH12C2(Br3N)2
_chemical_formula_sum   'In2 B2 H24 C4 Br12 N4'
_cell_volume   740.71256813
_cell_formula_units_Z   2
loop_
 _symmetry_equiv_pos_site_id
 _symmetry_equiv_pos_as_xyz
  1  'x, y, z'
loop_
 _atom_site_type_symbol
 _atom_site_label
 _atom_site_symmetry_multiplicity
 _atom_site_fract_x
 _atom_site_fract_y
 _atom_site_fract_z
 _atom_site_occupancy
  C  C0  1  0.50072928  0.27772259  0.44808619  1
  C  C1  1  0.99620518  0.21200581  0.05082535  1
  C  C2  1  0.57744259  0.73530801  0.57760696  1
  C  C3  1  0.07122676  0.76774614  0.91586011  1
  N  N4  1  0.55024669  0.26689664  0.60496016  1
  N  N5  1  0.04651514  0.24097123  0.89598998  1
  N  N6  1  0.40697115  0.73873659  0.53818788  1
  N  N7  1  0.90657235  0.76493976  0.97259802  1
  H  H8  1  0.60587722  0.28439571  0.37804258  1
  H  H9  1  0.43159915  0.18546558  0.42562764  1
  H  H10  1  0.42659147  0.37076068  0.42939191  1
  H  H11  1  0.61529323  0.17620410  0.63309413  1
  H  H12  1  0.62050369  0.34903203  0.63411539  1
  H  H13  1  0.45183665  0.26806857  0.67290202  1
  H  H14  1  0.10053199  0.18827568  0.11906464  1
  H  H15  1  0.91472739  0.12384577  0.05487056  1
  H  H16  1  0.93468558  0.30416901  0.08803128  1
  H  H17  1  0.09989858  0.15623239  0.84953462  1
  H  H18  1  0.12638239  0.32326427  0.88277709  1
  H  H19  1  0.94889266  0.26918826  0.83192639  1
  H  H20  1  0.58785297  0.72177597  0.69710835  1
  H  H21  1  0.63551595  0.64846211  0.52656681  1
  H  H22  1  0.63185452  0.83331397  0.53943659  1
  H  H23  1  0.35151212  0.82744590  0.57785855  1
  H  H24  1  0.34927191  0.65191604  0.58557489  1
  H  H25  1  0.38835325  0.74372967  0.42574636  1
  H  H26  1  0.06632373  0.75940807  0.79672580  1
  H  H27  1  0.12738136  0.86542061  0.94117824  1
  H  H28  1  0.13732539  0.67963154  0.96609723  1
  H  H29  1  0.84151512  0.84789467  0.92440086  1
  H  H30  1  0.85045890  0.67295600  0.94442280  1
  H  H31  1  0.90062097  0.76875980  0.08547884  1
  B  B32  1  0.47032693  0.96341653  0.10730017  1
  B  B33  1  0.97600389  0.52913830  0.38904694  1
  In  In34  1  0.98343622  0.02872093  0.46094796  1
  In  In35  1  0.48925685  0.47697861  0.03921548  1
  Br  Br36  1  0.44295465  0.15012126  0.99567233  1
  Br  Br37  1  0.27240661  0.92374302  0.22945810  1
  Br  Br38  1  0.66412042  0.96812979  0.23835391  1
  Br  Br39  1  0.95783542  0.34975209  0.51506952  1
  Br  Br40  1  0.25164808  0.02864658  0.65576378  1
  Br  Br41  1  0.79834888  0.02598413  0.73561724  1
  Br  Br42  1  0.49570489  0.81298812  0.96126047  1
  Br  Br43  1  0.77344112  0.55649336  0.26997271  1
  Br  Br44  1  0.16571524  0.51858413  0.25396658  1
  Br  Br45  1  0.00063099  0.68958329  0.52249956  1
  Br  Br46  1  0.30020774  0.47573525  0.76807861  1
  Br  Br47  1  0.75727045  0.47811971  0.84398501  1
