# generated using pymatgen
data_CdBH12C2(Br3N)2
_symmetry_space_group_name_H-M   'P 1'
_cell_length_a   8.70848131
_cell_length_b   9.46250049
_cell_length_c   8.78027566
_cell_angle_alpha   89.93739984
_cell_angle_beta   88.67582974
_cell_angle_gamma   89.32896056
_symmetry_Int_Tables_number   1
_chemical_formula_structural   CdBH12C2(Br3N)2
_chemical_formula_sum   'Cd2 B2 H24 C4 Br12 N4'
_cell_volume   723.28683956
_cell_formula_units_Z   2
loop_
 _symmetry_equiv_pos_site_id
 _symmetry_equiv_pos_as_xyz
  1  'x, y, z'
loop_
 _atom_site_type_symbol
 _atom_site_label
 _atom_site_symmetry_multiplicity
 _atom_site_fract_x
 _atom_site_fract_y
 _atom_site_fract_z
 _atom_site_occupancy
  C  C0  1  0.46781003  0.24300205  0.45292677  1
  C  C1  1  0.94002867  0.21742579  0.06921509  1
  C  C2  1  0.54335155  0.74627575  0.55839534  1
  C  C3  1  0.05153187  0.74034085  0.92744596  1
  N  N4  1  0.58210177  0.23046479  0.57629071  1
  N  N5  1  0.03972671  0.24200887  0.93258386  1
  N  N6  1  0.43812511  0.74888811  0.43279600  1
  N  N7  1  0.94195991  0.77966227  0.05279088  1
  H  H8  1  0.52905620  0.26777533  0.34612464  1
  H  H9  1  0.40986088  0.14138721  0.44234085  1
  H  H10  1  0.38383133  0.32591054  0.48307752  1
  H  H11  1  0.66128463  0.14971968  0.55201629  1
  H  H12  1  0.64441521  0.32169356  0.59175978  1
  H  H13  1  0.53014659  0.20679641  0.68027077  1
  H  H14  1  0.01151556  0.20722761  0.16920928  1
  H  H15  1  0.87553883  0.12089614  0.05123897  1
  H  H16  1  0.86056674  0.30698971  0.08240155  1
  H  H17  1  0.11743039  0.15957692  0.91378446  1
  H  H18  1  0.10309708  0.33380525  0.94027419  1
  H  H19  1  0.97393603  0.24841787  0.83601063  1
  H  H20  1  0.47570091  0.76686609  0.66496705  1
  H  H21  1  0.61591654  0.64966433  0.56942015  1
  H  H22  1  0.62297318  0.83509048  0.54909257  1
  H  H23  1  0.18948423  0.99931948  0.49702471  1
  H  H24  1  0.36549055  0.66468767  0.43512816  1
  H  H25  1  0.49752967  0.74720771  0.33111177  1
  H  H26  1  0.98891165  0.68395173  0.84024454  1
  H  H27  1  0.10002687  0.83692602  0.87940460  1
  H  H28  1  0.14137292  0.67240733  0.97365967  1
  H  H29  1  0.85493544  0.84400732  0.01167284  1
  H  H30  1  0.89111022  0.69211430  0.10441064  1
  H  H31  1  0.99505764  0.83549350  0.13754297  1
  B  B32  1  0.40263306  0.01329992  0.99422608  1
  B  B33  1  0.99059468  0.50055051  0.37865072  1
  Cd  Cd34  1  0.99494590  0.98290335  0.50074493  1
  Cd  Cd35  1  0.51008057  0.59751663  0.85871786  1
  Br  Br36  1  0.53338971  0.18125428  0.01790547  1
  Br  Br37  1  0.24685791  0.99791011  0.16340091  1
  Br  Br38  1  0.76166388  0.99199485  0.32255868  1
  Br  Br39  1  0.99568547  0.32000986  0.50307931  1
  Br  Br40  1  0.31927231  0.00576233  0.78337854  1
  Br  Br41  1  0.82624530  0.00327604  0.75890377  1
  Br  Br42  1  0.54629884  0.82320747  0.02828173  1
  Br  Br43  1  0.77866132  0.52288570  0.28382323  1
  Br  Br44  1  0.16223350  0.48920842  0.21559963  1
  Br  Br45  1  0.02995293  0.66615965  0.51492393  1
  Br  Br46  1  0.28703213  0.45922767  0.76719148  1
  Br  Br47  1  0.77065128  0.47891084  0.82427711  1
