# generated using pymatgen
data_AgBH12C2(Br3N)2
_symmetry_space_group_name_H-M   'P 1'
_cell_length_a   7.26142495
_cell_length_b   12.17975606
_cell_length_c   8.12540489
_cell_angle_alpha   92.88975213
_cell_angle_beta   90.02748112
_cell_angle_gamma   89.98618256
_symmetry_Int_Tables_number   1
_chemical_formula_structural   AgBH12C2(Br3N)2
_chemical_formula_sum   'Ag2 B2 H24 C4 Br12 N4'
_cell_volume   717.71626716
_cell_formula_units_Z   2
loop_
 _symmetry_equiv_pos_site_id
 _symmetry_equiv_pos_as_xyz
  1  'x, y, z'
loop_
 _atom_site_type_symbol
 _atom_site_label
 _atom_site_symmetry_multiplicity
 _atom_site_fract_x
 _atom_site_fract_y
 _atom_site_fract_z
 _atom_site_occupancy
  C  C0  1  0.42280041  0.26303556  0.40373258  1
  C  C1  1  0.92284810  0.23703956  0.09655055  1
  C  C2  1  0.62308586  0.74371144  0.63388067  1
  C  C3  1  0.12217673  0.75656149  0.86604242  1
  N  N4  1  0.48907305  0.21068556  0.55345268  1
  N  N5  1  0.98916997  0.28912308  0.94670313  1
  N  N6  1  0.46295558  0.74625927  0.52160491  1
  N  N7  1  0.96221774  0.75345168  0.97830456  1
  H  H8  1  0.48188536  0.22025741  0.29442920  1
  H  H9  1  0.27231702  0.25818445  0.39910718  1
  H  H10  1  0.46503748  0.34943734  0.40969774  1
  H  H11  1  0.44263203  0.12978923  0.55946615  1
  H  H12  1  0.63410042  0.21029884  0.55626495  1
  H  H13  1  0.44660602  0.25059105  0.66381686  1
  H  H14  1  0.98234101  0.27976943  0.20575111  1
  H  H15  1  0.96459511  0.15053778  0.09072273  1
  H  H16  1  0.77240730  0.24222712  0.10126291  1
  H  H17  1  0.13419873  0.28941061  0.94392659  1
  H  H18  1  0.94283610  0.37004548  0.94044912  1
  H  H19  1  0.94657023  0.24915326  0.83640630  1
  H  H20  1  0.57269359  0.74445286  0.76093748  1
  H  H21  1  0.70169002  0.66854285  0.60603329  1
  H  H22  1  0.70744105  0.81657546  0.61624039  1
  H  H23  1  0.38556650  0.81863065  0.54772345  1
  H  H24  1  0.37840334  0.67824306  0.53470952  1
  H  H25  1  0.50173282  0.74624649  0.39837549  1
  H  H26  1  0.07165747  0.75586812  0.73899028  1
  H  H27  1  0.20021962  0.83189583  0.89411414  1
  H  H28  1  0.20715540  0.68388924  0.88345357  1
  H  H29  1  0.87723379  0.82133056  0.96542515  1
  H  H30  1  0.88527195  0.68095345  0.95198198  1
  H  H31  1  0.00118706  0.75340607  0.10152405  1
  B  B32  1  0.55103464  0.93204686  0.12908166  1
  B  B33  1  0.05130996  0.56807670  0.37085048  1
  Ag  Ag34  1  0.03129581  0.03148300  0.45891885  1
  Ag  Ag35  1  0.53130524  0.46871385  0.04101453  1
  Br  Br36  1  0.43294561  0.26670741  0.94975676  1
  Br  Br37  1  0.29625051  0.99797712  0.13694039  1
  Br  Br38  1  0.68386304  0.97985608  0.34552751  1
  Br  Br39  1  0.93280637  0.23339600  0.55030455  1
  Br  Br40  1  0.28721139  0.97665990  0.65440298  1
  Br  Br41  1  0.69980106  0.98192432  0.93582183  1
  Br  Br42  1  0.53207292  0.76380133  0.11505604  1
  Br  Br43  1  0.79641937  0.50232090  0.36287088  1
  Br  Br44  1  0.18395445  0.52005615  0.15448148  1
  Br  Br45  1  0.03264742  0.73631325  0.38472145  1
  Br  Br46  1  0.19998069  0.51814100  0.56428306  1
  Br  Br47  1  0.78701842  0.52300012  0.84518301  1
