# generated using pymatgen
data_BH12RhC2(Br3N)2
_symmetry_space_group_name_H-M   'P 1'
_cell_length_a   7.81929844
_cell_length_b   10.37714483
_cell_length_c   8.46641265
_cell_angle_alpha   94.86384841
_cell_angle_beta   85.04179649
_cell_angle_gamma   90.99127706
_symmetry_Int_Tables_number   1
_chemical_formula_structural   BH12RhC2(Br3N)2
_chemical_formula_sum   'B2 H24 Rh2 C4 Br12 N4'
_cell_volume   681.91193445
_cell_formula_units_Z   2
loop_
 _symmetry_equiv_pos_site_id
 _symmetry_equiv_pos_as_xyz
  1  'x, y, z'
loop_
 _atom_site_type_symbol
 _atom_site_label
 _atom_site_symmetry_multiplicity
 _atom_site_fract_x
 _atom_site_fract_y
 _atom_site_fract_z
 _atom_site_occupancy
  C  C0  1  0.52676883  0.25977971  0.44228127  1
  C  C1  1  0.95578354  0.25010900  0.03899141  1
  C  C2  1  0.53029453  0.71945348  0.60076348  1
  C  C3  1  0.00554101  0.75896852  0.91642110  1
  N  N4  1  0.57029390  0.23959270  0.60514776  1
  N  N5  1  0.01682839  0.24578991  0.86833705  1
  N  N6  1  0.47642205  0.77556689  0.45718579  1
  N  N7  1  0.93192382  0.74612787  0.08177737  1
  H  H8  1  0.64422564  0.25885632  0.36240791  1
  H  H9  1  0.44026842  0.18164638  0.40395016  1
  H  H10  1  0.46397692  0.35337305  0.44499006  1
  H  H11  1  0.64075899  0.15539822  0.61081410  1
  H  H12  1  0.63880117  0.31850539  0.65515270  1
  H  H13  1  0.45917909  0.23256707  0.67963793  1
  H  H14  1  0.06745754  0.25732521  0.10853620  1
  H  H15  1  0.88231773  0.16180844  0.06217860  1
  H  H16  1  0.87465549  0.33523871  0.06900498  1
  H  H17  1  0.07754898  0.15956078  0.82567875  1
  H  H18  1  0.10470680  0.32189861  0.84583373  1
  H  H19  1  0.91540664  0.25592681  0.80042576  1
  H  H20  1  0.41960196  0.67315607  0.66170907  1
  H  H21  1  0.62901286  0.64713675  0.56362609  1
  H  H22  1  0.58193513  0.79771681  0.67819289  1
  H  H23  1  0.36940326  0.83382443  0.48757000  1
  H  H24  1  0.45251117  0.70370890  0.36935640  1
  H  H25  1  0.57364684  0.83551055  0.40870053  1
  H  H26  1  0.89999388  0.76630233  0.84115053  1
  H  H27  1  0.08486549  0.84687538  0.91293093  1
  H  H28  1  0.08269702  0.67342173  0.87563505  1
  H  H29  1  0.86348721  0.82804069  0.13182355  1
  H  H30  1  0.84880292  0.66616983  0.09250411  1
  H  H31  1  0.02685907  0.73406391  0.15654256  1
  B  B32  1  0.38635598  0.00083785  0.09656871  1
  B  B33  1  0.09766212  0.50834445  0.38473044  1
  Rh  Rh34  1  0.00671202  0.98680869  0.48261911  1
  Rh  Rh35  1  0.48981123  0.48077716  0.01195585  1
  Br  Br36  1  0.48572459  0.15556299  0.01711040  1
  Br  Br37  1  0.18509234  0.04272120  0.24420142  1
  Br  Br38  1  0.76074140  0.98220203  0.31322267  1
  Br  Br39  1  0.05376332  0.33908290  0.44975502  1
  Br  Br40  1  0.24720455  0.00675667  0.65968743  1
  Br  Br41  1  0.80015877  0.00086623  0.71681163  1
  Br  Br42  1  0.45933359  0.82747186  0.03656853  1
  Br  Br43  1  0.67561632  0.52498228  0.23521219  1
  Br  Br44  1  0.23025446  0.54463048  0.18413466  1
  Br  Br45  1  0.01765078  0.66469248  0.50176604  1
  Br  Br46  1  0.30474022  0.45798457  0.78627907  1
  Br  Br47  1  0.74322576  0.48293599  0.82041562  1
