# generated using pymatgen
data_ZrBH12C2(Br3N)2
_symmetry_space_group_name_H-M   'P 1'
_cell_length_a   7.01335559
_cell_length_b   12.68039352
_cell_length_c   8.88983107
_cell_angle_alpha   86.40102129
_cell_angle_beta   82.14367307
_cell_angle_gamma   84.95574559
_symmetry_Int_Tables_number   1
_chemical_formula_structural   ZrBH12C2(Br3N)2
_chemical_formula_sum   'Zr2 B2 H24 C4 Br12 N4'
_cell_volume   779.10512169
_cell_formula_units_Z   2
loop_
 _symmetry_equiv_pos_site_id
 _symmetry_equiv_pos_as_xyz
  1  'x, y, z'
loop_
 _atom_site_type_symbol
 _atom_site_label
 _atom_site_symmetry_multiplicity
 _atom_site_fract_x
 _atom_site_fract_y
 _atom_site_fract_z
 _atom_site_occupancy
  C  C0  1  0.37331469  0.22156970  0.43520145  1
  C  C1  1  0.06398143  0.23855403  0.02434212  1
  C  C2  1  0.45547707  0.74834410  0.42229749  1
  C  C3  1  0.16727051  0.77310154  0.98655135  1
  N  N4  1  0.37758707  0.26052554  0.58955143  1
  N  N5  1  0.96725785  0.31323224  0.92238137  1
  N  N6  1  0.38342650  0.67658832  0.32085519  1
  N  N7  1  0.10707505  0.76652917  0.15250803  1
  H  H8  1  0.48219132  0.25989209  0.35501953  1
  H  H9  1  0.40704528  0.13559193  0.44096999  1
  H  H10  1  0.22903368  0.24127780  0.40260484  1
  H  H11  1  0.51981028  0.25272486  0.61440487  1
  H  H12  1  0.32994064  0.34006006  0.59773859  1
  H  H13  1  0.29395507  0.21574088  0.67070932  1
  H  H14  1  0.21810109  0.22034063  0.98247081  1
  H  H15  1  0.99379484  0.16369691  0.04243473  1
  H  H16  1  0.05668635  0.27093916  0.13757053  1
  H  H17  1  0.49499828  0.38759750  0.88691347  1
  H  H18  1  0.55133502  0.33862678  0.91521604  1
  H  H19  1  0.94177959  0.28079606  0.82505793  1
  H  H20  1  0.33178307  0.79146481  0.48709237  1
  H  H21  1  0.54262911  0.70215461  0.50038557  1
  H  H22  1  0.54283272  0.80555944  0.35326430  1
  H  H23  1  0.13122952  0.95704509  0.46753602  1
  H  H24  1  0.31598951  0.61636492  0.38498536  1
  H  H25  1  0.49369187  0.63973870  0.24825512  1
  H  H26  1  0.04491052  0.78627521  0.92022429  1
  H  H27  1  0.25990655  0.83865192  0.95786253  1
  H  H28  1  0.25115602  0.69928619  0.95268112  1
  H  H29  1  0.04244322  0.83788803  0.18868318  1
  H  H30  1  0.00584206  0.71215738  0.17830371  1
  H  H31  1  0.27630449  0.71802477  0.25053648  1
  B  B32  1  0.53782754  0.00172034  0.05565637  1
  B  B33  1  0.02993031  0.51537085  0.73480157  1
  Zr  Zr34  1  0.92104424  0.02342266  0.57744507  1
  Zr  Zr35  1  0.90910755  0.46112131  0.00069601  1
  Br  Br36  1  0.63794676  0.11460800  0.92224802  1
  Br  Br37  1  0.30078295  0.02336828  0.18414830  1
  Br  Br38  1  0.81215377  0.04394779  0.31256884  1
  Br  Br39  1  0.85651381  0.23474816  0.57911019  1
  Br  Br40  1  0.18668382  0.03150109  0.75272132  1
  Br  Br41  1  0.74096534  0.86364294  0.65812395  1
  Br  Br42  1  0.66640682  0.86429507  0.05150353  1
  Br  Br43  1  0.67178609  0.42552913  0.25601776  1
  Br  Br44  1  0.19637231  0.49593798  0.12966344  1
  Br  Br45  1  0.89704295  0.54151005  0.55545262  1
  Br  Br46  1  0.31528425  0.52720464  0.67506399  1
  Br  Br47  1  0.66739497  0.62180961  0.94046646  1
