# generated using pymatgen
data_YBH12C2(Br3N)2
_symmetry_space_group_name_H-M   'P 1'
_cell_length_a   8.14593580
_cell_length_b   11.32864400
_cell_length_c   7.82943699
_cell_angle_alpha   92.22763830
_cell_angle_beta   89.90429937
_cell_angle_gamma   90.17013426
_symmetry_Int_Tables_number   1
_chemical_formula_structural   YBH12C2(Br3N)2
_chemical_formula_sum   'Y2 B2 H24 C4 Br12 N4'
_cell_volume   721.96921061
_cell_formula_units_Z   2
loop_
 _symmetry_equiv_pos_site_id
 _symmetry_equiv_pos_as_xyz
  1  'x, y, z'
loop_
 _atom_site_type_symbol
 _atom_site_label
 _atom_site_symmetry_multiplicity
 _atom_site_fract_x
 _atom_site_fract_y
 _atom_site_fract_z
 _atom_site_occupancy
  C  C0  1  0.43539775  0.25161166  0.44042765  1
  C  C1  1  0.93176663  0.24932319  0.06100755  1
  C  C2  1  0.57297090  0.75384553  0.57392997  1
  C  C3  1  0.07398434  0.74465210  0.92613752  1
  N  N4  1  0.58648651  0.24761949  0.54574086  1
  N  N5  1  0.08275986  0.25203650  0.95484354  1
  N  N6  1  0.41737797  0.74336235  0.47648914  1
  N  N7  1  0.91715294  0.75615231  0.02159234  1
  H  H8  1  0.47052671  0.25053145  0.30546541  1
  H  H9  1  0.36170910  0.17365134  0.46677059  1
  H  H10  1  0.36672916  0.33175003  0.47486445  1
  H  H11  1  0.65646773  0.17462612  0.50670452  1
  H  H12  1  0.65908931  0.32153770  0.53174018  1
  H  H13  1  0.55994223  0.24229697  0.67594334  1
  H  H14  1  0.96704864  0.25229314  0.19585432  1
  H  H15  1  0.86279397  0.16860948  0.02926577  1
  H  H16  1  0.85833070  0.32664669  0.03265481  1
  H  H17  1  0.15450649  0.17818762  0.97035720  1
  H  H18  1  0.15371008  0.32514796  0.99180495  1
  H  H19  1  0.05634348  0.25607311  0.82449039  1
  H  H20  1  0.54373627  0.76554036  0.70996630  1
  H  H21  1  0.64514924  0.67364790  0.55122973  1
  H  H22  1  0.64012553  0.83082521  0.53077960  1
  H  H23  1  0.34345786  0.81599872  0.50553721  1
  H  H24  1  0.35252054  0.66842982  0.50981484  1
  H  H25  1  0.43805050  0.73889435  0.34466812  1
  H  H26  1  0.04671896  0.73464401  0.78955453  1
  H  H27  1  0.14854079  0.82365087  0.95152032  1
  H  H28  1  0.13779727  0.66634225  0.96849684  1
  H  H29  1  0.85421436  0.83144188  0.98733253  1
  H  H30  1  0.84231166  0.68388015  0.99155016  1
  H  H31  1  0.93592513  0.76060500  0.15356573  1
  B  B32  1  0.43299625  0.99482737  0.04444433  1
  B  B33  1  0.93635292  0.50753159  0.45340623  1
  Y  Y34  1  0.98611118  0.99875719  0.52862016  1
  Y  Y35  1  0.48517497  0.50188546  0.97252753  1
  Br  Br36  1  0.50224343  0.25708125  0.96237417  1
  Br  Br37  1  0.21768263  0.01263945  0.18995294  1
  Br  Br38  1  0.72354615  0.01428637  0.30761897  1
  Br  Br39  1  0.00515922  0.24323137  0.53781000  1
  Br  Br40  1  0.28975938  0.99096813  0.69003487  1
  Br  Br41  1  0.79937059  0.98863811  0.80768747  1
  Br  Br42  1  0.50841200  0.74201680  0.06288117  1
  Br  Br43  1  0.72183486  0.48915586  0.30716893  1
  Br  Br44  1  0.22356598  0.48531639  0.19592811  1
  Br  Br45  1  0.00832831  0.75879537  0.43640536  1
  Br  Br46  1  0.29790053  0.51194373  0.69472555  1
  Br  Br47  1  0.78794273  0.50914858  0.80861042  1
