# generated using pymatgen
data_SrBH12C2(Br3N)2
_symmetry_space_group_name_H-M   'P 1'
_cell_length_a   8.28663216
_cell_length_b   10.29506042
_cell_length_c   9.06894164
_cell_angle_alpha   79.94950908
_cell_angle_beta   78.49966086
_cell_angle_gamma   91.49526875
_symmetry_Int_Tables_number   1
_chemical_formula_structural   SrBH12C2(Br3N)2
_chemical_formula_sum   'Sr2 B2 H24 C4 Br12 N4'
_cell_volume   745.02889877
_cell_formula_units_Z   2
loop_
 _symmetry_equiv_pos_site_id
 _symmetry_equiv_pos_as_xyz
  1  'x, y, z'
loop_
 _atom_site_type_symbol
 _atom_site_label
 _atom_site_symmetry_multiplicity
 _atom_site_fract_x
 _atom_site_fract_y
 _atom_site_fract_z
 _atom_site_occupancy
  C  C0  1  0.46131356  0.20373167  0.42898220  1
  C  C1  1  0.95531450  0.31610649  0.98639600  1
  C  C2  1  0.47763709  0.80644717  0.55316325  1
  C  C3  1  0.14761072  0.68054858  0.88805603  1
  N  N4  1  0.58548446  0.21266743  0.52455103  1
  N  N5  1  0.02062114  0.22991544  0.87646951  1
  N  N6  1  0.34868618  0.78842739  0.46479078  1
  N  N7  1  0.97174448  0.80393734  0.18518445  1
  H  H8  1  0.51934395  0.24587494  0.31026913  1
  H  H9  1  0.42674672  0.09927741  0.43546455  1
  H  H10  1  0.35401575  0.25715462  0.46991847  1
  H  H11  1  0.68974469  0.16419356  0.47940855  1
  H  H12  1  0.61958043  0.30998549  0.52366193  1
  H  H13  1  0.53902419  0.16829079  0.63713513  1
  H  H14  1  0.05766121  0.35440418  0.02987906  1
  H  H15  1  0.87065718  0.25670822  0.08466276  1
  H  H16  1  0.89518464  0.39860715  0.93032355  1
  H  H17  1  0.08572796  0.15506617  0.92441740  1
  H  H18  1  0.10320321  0.28369226  0.78167593  1
  H  H19  1  0.93003677  0.18216784  0.83705379  1
  H  H20  1  0.42425437  0.78930683  0.67597664  1
  H  H21  1  0.57739632  0.73860134  0.53393742  1
  H  H22  1  0.53393960  0.90753874  0.51930533  1
  H  H23  1  0.21012596  0.65139016  0.78154046  1
  H  H24  1  0.31626284  0.68861209  0.48529504  1
  H  H25  1  0.40589686  0.80899712  0.35071378  1
  H  H26  1  0.06702252  0.75986533  0.85891849  1
  H  H27  1  0.23673462  0.71824907  0.94805268  1
  H  H28  1  0.06819911  0.59712532  0.96104268  1
  H  H29  1  0.84852618  0.81991650  0.19475361  1
  H  H30  1  0.98347377  0.70986157  0.16360801  1
  H  H31  1  0.02721352  0.86572317  0.08539504  1
  B  B32  1  0.42558665  0.05470640  0.99729684  1
  B  B33  1  0.99019234  0.46619017  0.41219042  1
  Sr  Sr34  1  0.04179208  0.87886449  0.43531961  1
  Sr  Sr35  1  0.38970499  0.45540288  0.97164378  1
  Br  Br36  1  0.60086704  0.20965158  0.92347801  1
  Br  Br37  1  0.24989680  0.12198203  0.16108267  1
  Br  Br38  1  0.80052134  0.05185940  0.29943977  1
  Br  Br39  1  0.00322578  0.27745358  0.50628802  1
  Br  Br40  1  0.31545010  0.02511338  0.82431008  1
  Br  Br41  1  0.90490189  0.96344957  0.72617303  1
  Br  Br42  1  0.51801535  0.88899148  0.07640467  1
  Br  Br43  1  0.81883615  0.48299774  0.28242558  1
  Br  Br44  1  0.22316353  0.53697068  0.27900261  1
  Br  Br45  1  0.93190413  0.57659833  0.57939310  1
  Br  Br46  1  0.34461909  0.43480264  0.66960354  1
  Br  Br47  1  0.68296199  0.60265251  0.94624214  1
