# generated using pymatgen
data_BAsH12C2(Br3N)2
_symmetry_space_group_name_H-M   'P 1'
_cell_length_a   8.15384830
_cell_length_b   10.58231375
_cell_length_c   8.17357882
_cell_angle_alpha   87.93457428
_cell_angle_beta   89.93144481
_cell_angle_gamma   88.32175080
_symmetry_Int_Tables_number   1
_chemical_formula_structural   BAsH12C2(Br3N)2
_chemical_formula_sum   'B2 As2 H24 C4 Br12 N4'
_cell_volume   704.50963721
_cell_formula_units_Z   2
loop_
 _symmetry_equiv_pos_site_id
 _symmetry_equiv_pos_as_xyz
  1  'x, y, z'
loop_
 _atom_site_type_symbol
 _atom_site_label
 _atom_site_symmetry_multiplicity
 _atom_site_fract_x
 _atom_site_fract_y
 _atom_site_fract_z
 _atom_site_occupancy
  C  C0  1  0.47013500  0.24814948  0.45135575  1
  C  C1  1  0.95240619  0.23840432  0.05540212  1
  C  C2  1  0.53509585  0.75822199  0.55426980  1
  C  C3  1  0.02808644  0.75324504  0.93151195  1
  N  N4  1  0.57609492  0.25858854  0.59808300  1
  N  N5  1  0.06283926  0.26979151  0.91592028  1
  N  N6  1  0.42892881  0.74104246  0.40854093  1
  N  N7  1  0.92713733  0.75144915  0.08314070  1
  H  H8  1  0.54769492  0.24375035  0.34244240  1
  H  H9  1  0.39974323  0.16180355  0.46488039  1
  H  H10  1  0.38558261  0.33037050  0.44293947  1
  H  H11  1  0.65288534  0.17865267  0.61881594  1
  H  H12  1  0.65036401  0.33623308  0.58830695  1
  H  H13  1  0.50736202  0.26918625  0.70376408  1
  H  H14  1  0.02599535  0.22018174  0.16574553  1
  H  H15  1  0.88498973  0.15433956  0.02664697  1
  H  H16  1  0.86663075  0.31834066  0.07163276  1
  H  H17  1  0.13358833  0.19165542  0.88083299  1
  H  H18  1  0.14218698  0.34081052  0.94324577  1
  H  H19  1  0.99738563  0.30266560  0.81351074  1
  H  H20  1  0.45747868  0.76103478  0.66326907  1
  H  H21  1  0.62319790  0.67838921  0.56540505  1
  H  H22  1  0.60028364  0.84658617  0.53625208  1
  H  H23  1  0.34897630  0.81792011  0.38624901  1
  H  H24  1  0.35676236  0.66258700  0.42358330  1
  H  H25  1  0.49604107  0.73250121  0.30117625  1
  H  H26  1  0.94660473  0.76330197  0.82564501  1
  H  H27  1  0.10890108  0.83349174  0.93450023  1
  H  H28  1  0.10038961  0.66473011  0.92774414  1
  H  H29  1  0.85759030  0.83424723  0.09612777  1
  H  H30  1  0.84714270  0.67692920  0.08589347  1
  H  H31  1  0.99830798  0.74019519  0.18803862  1
  B  B32  1  0.38905028  0.99398294  0.00130737  1
  B  B33  1  0.99523599  0.49126909  0.38109612  1
  As  As34  1  0.99005998  0.98232179  0.53015189  1
  As  As35  1  0.54187072  0.48206492  0.98167724  1
  Br  Br36  1  0.50649222  0.15759799  0.02151527  1
  Br  Br37  1  0.21880414  0.98520765  0.18799194  1
  Br  Br38  1  0.77480216  0.99593481  0.31829008  1
  Br  Br39  1  0.01769065  0.32134421  0.49968121  1
  Br  Br40  1  0.27602259  0.01689969  0.77282173  1
  Br  Br41  1  0.80063745  0.01641695  0.75637012  1
  Br  Br42  1  0.51145933  0.82446708  0.00517174  1
  Br  Br43  1  0.75560540  0.50457413  0.29186067  1
  Br  Br44  1  0.16813709  0.49352455  0.19678498  1
  Br  Br45  1  0.02374904  0.65629964  0.49627257  1
  Br  Br46  1  0.33415491  0.49119968  0.75990998  1
  Br  Br47  1  0.77944272  0.50817687  0.80452114  1
