# generated using pymatgen
data_GeBH12C2(Br3N)2
_symmetry_space_group_name_H-M   'P 1'
_cell_length_a   7.74012242
_cell_length_b   11.37435664
_cell_length_c   8.50093701
_cell_angle_alpha   91.18812070
_cell_angle_beta   93.61339649
_cell_angle_gamma   87.71982479
_symmetry_Int_Tables_number   1
_chemical_formula_structural   GeBH12C2(Br3N)2
_chemical_formula_sum   'Ge2 B2 H24 C4 Br12 N4'
_cell_volume   746.20933573
_cell_formula_units_Z   2
loop_
 _symmetry_equiv_pos_site_id
 _symmetry_equiv_pos_as_xyz
  1  'x, y, z'
loop_
 _atom_site_type_symbol
 _atom_site_label
 _atom_site_symmetry_multiplicity
 _atom_site_fract_x
 _atom_site_fract_y
 _atom_site_fract_z
 _atom_site_occupancy
  C  C0  1  0.44495531  0.21014940  0.43908100  1
  C  C1  1  0.01033578  0.27893830  0.03027536  1
  C  C2  1  0.43598649  0.76451969  0.45231928  1
  C  C3  1  0.04108943  0.73703349  0.98472717  1
  N  N4  1  0.52909610  0.24894576  0.59275432  1
  N  N5  1  0.15765095  0.30055286  0.93362864  1
  N  N6  1  0.37324125  0.71595599  0.29761600  1
  N  N7  1  0.03901266  0.72518702  0.15858728  1
  H  H8  1  0.47918977  0.26925096  0.34669474  1
  H  H9  1  0.49208114  0.12035830  0.41232178  1
  H  H10  1  0.30428499  0.21310976  0.44745277  1
  H  H11  1  0.66246511  0.25128843  0.58366632  1
  H  H12  1  0.48501739  0.33229016  0.63169982  1
  H  H13  1  0.50654871  0.18989633  0.67994935  1
  H  H14  1  0.05931951  0.25528195  0.14954413  1
  H  H15  1  0.93340714  0.20663695  0.98022007  1
  H  H16  1  0.92847713  0.35955261  0.03745446  1
  H  H17  1  0.22281548  0.22242506  0.90870723  1
  H  H18  1  0.16488385  0.51112991  0.04428938  1
  H  H19  1  0.11232089  0.33672096  0.82781638  1
  H  H20  1  0.36319643  0.72899017  0.54593765  1
  H  H21  1  0.57483014  0.74394629  0.47969205  1
  H  H22  1  0.41557234  0.86063365  0.45275744  1
  H  H23  1  0.12365025  0.99235932  0.47965354  1
  H  H24  1  0.40006002  0.62686305  0.29625048  1
  H  H25  1  0.44340611  0.74921299  0.21098322  1
  H  H26  1  0.90854318  0.73532086  0.93143284  1
  H  H27  1  0.09741936  0.82089324  0.95971538  1
  H  H28  1  0.11971897  0.66390429  0.93745006  1
  H  H29  1  0.96107829  0.79159191  0.20464630  1
  H  H30  1  0.98800841  0.64642896  0.18756128  1
  H  H31  1  0.17020095  0.72761635  0.21967992  1
  B  B32  1  0.42490431  1.00000353  0.97322681  1
  B  B33  1  0.92974826  0.42081194  0.46335500  1
  Ge  Ge34  1  0.95739202  0.93561389  0.52757321  1
  Ge  Ge35  1  0.33101915  0.41940428  0.04929114  1
  Br  Br36  1  0.58610284  0.13507214  0.01983754  1
  Br  Br37  1  0.24367737  0.00789281  0.13682502  1
  Br  Br38  1  0.76465781  0.94775216  0.30617039  1
  Br  Br39  1  0.91722262  0.24171252  0.43630600  1
  Br  Br40  1  0.31015637  0.03047501  0.75274197  1
  Br  Br41  1  0.82724904  0.02252550  0.74038467  1
  Br  Br42  1  0.54181368  0.83823941  0.96288347  1
  Br  Br43  1  0.75007867  0.49907157  0.30983216  1
  Br  Br44  1  0.16994345  0.46484003  0.41471458  1
  Br  Br45  1  0.99846042  0.73842666  0.57937889  1
  Br  Br46  1  0.42170882  0.49788158  0.79487717  1
  Br  Br47  1  0.87802533  0.46337029  0.68833294  1
