# generated using pymatgen
data_GaBH12C2(Br3N)2
_symmetry_space_group_name_H-M   'P 1'
_cell_length_a   8.44451992
_cell_length_b   9.81284850
_cell_length_c   8.68527036
_cell_angle_alpha   89.21317166
_cell_angle_beta   89.19511261
_cell_angle_gamma   90.23606928
_symmetry_Int_Tables_number   1
_chemical_formula_structural   GaBH12C2(Br3N)2
_chemical_formula_sum   'Ga2 B2 H24 C4 Br12 N4'
_cell_volume   719.55757907
_cell_formula_units_Z   2
loop_
 _symmetry_equiv_pos_site_id
 _symmetry_equiv_pos_as_xyz
  1  'x, y, z'
loop_
 _atom_site_type_symbol
 _atom_site_label
 _atom_site_symmetry_multiplicity
 _atom_site_fract_x
 _atom_site_fract_y
 _atom_site_fract_z
 _atom_site_occupancy
  C  C0  1  0.47935041  0.25049087  0.45607194  1
  C  C1  1  0.95367379  0.23958909  0.06126828  1
  C  C2  1  0.52461955  0.74830890  0.56417872  1
  C  C3  1  0.01982059  0.74221316  0.91943244  1
  N  N4  1  0.57206017  0.24810913  0.60008430  1
  N  N5  1  0.03679011  0.26314512  0.91178505  1
  N  N6  1  0.44216547  0.75881996  0.41333452  1
  N  N7  1  0.93140641  0.76536087  0.06549824  1
  H  H8  1  0.56019377  0.25950667  0.35693969  1
  H  H9  1  0.41159668  0.15537482  0.44892230  1
  H  H10  1  0.39722939  0.33657813  0.46017589  1
  H  H11  1  0.64991843  0.16568331  0.60843954  1
  H  H12  1  0.63923795  0.33608269  0.61574945  1
  H  H13  1  0.49737988  0.24273109  0.69564442  1
  H  H14  1  0.04044495  0.22970729  0.15280119  1
  H  H15  1  0.88281010  0.14640083  0.05394768  1
  H  H16  1  0.87622894  0.32658539  0.08256553  1
  H  H17  1  0.09811974  0.17767070  0.87572661  1
  H  H18  1  0.11870273  0.34341909  0.91135990  1
  H  H19  1  0.95574291  0.28767480  0.82723751  1
  H  H20  1  0.43725427  0.72457916  0.65482993  1
  H  H21  1  0.61270790  0.66701093  0.55728296  1
  H  H22  1  0.58439066  0.84546882  0.58485343  1
  H  H23  1  0.35486109  0.83238380  0.41434593  1
  H  H24  1  0.38648254  0.66878573  0.38381278  1
  H  H25  1  0.52176963  0.78707757  0.32594450  1
  H  H26  1  0.93402017  0.72860547  0.82807391  1
  H  H27  1  0.09469922  0.83119371  0.89490217  1
  H  H28  1  0.09218067  0.65063054  0.93203607  1
  H  H29  1  0.85439283  0.84713388  0.05872138  1
  H  H30  1  0.86472043  0.68073966  0.09998090  1
  H  H31  1  0.00738636  0.78591305  0.15446287  1
  B  B32  1  0.40362087  0.99747030  0.98847669  1
  B  B33  1  0.99991591  0.50524734  0.39177006  1
  Ga  Ga34  1  0.00411197  0.98857727  0.49197010  1
  Ga  Ga35  1  0.50839877  0.48750993  0.00429637  1
  Br  Br36  1  0.53905705  0.16238482  0.02308704  1
  Br  Br37  1  0.23641624  0.98607729  0.16176041  1
  Br  Br38  1  0.75453795  0.97043204  0.31828878  1
  Br  Br39  1  0.01508974  0.32367481  0.50201082  1
  Br  Br40  1  0.29896396  0.01743860  0.77748074  1
  Br  Br41  1  0.82534277  0.01885673  0.73977207  1
  Br  Br42  1  0.52847590  0.82143151  0.99117918  1
  Br  Br43  1  0.77714804  0.51943299  0.30075611  1
  Br  Br44  1  0.17120196  0.51443669  0.22221547  1
  Br  Br45  1  0.03906064  0.66400476  0.53109541  1
  Br  Br46  1  0.31296764  0.46529181  0.77588932  1
  Br  Br47  1  0.75335655  0.48483716  0.80983800  1
