# generated using pymatgen
data_SrBeH12C2(I3N)2
_symmetry_space_group_name_H-M   'P 1'
_cell_length_a   7.46806231
_cell_length_b   12.53874719
_cell_length_c   9.48999893
_cell_angle_alpha   94.20514814
_cell_angle_beta   90.01347840
_cell_angle_gamma   89.99171921
_symmetry_Int_Tables_number   1
_chemical_formula_structural   SrBeH12C2(I3N)2
_chemical_formula_sum   'Sr2 Be2 H24 C4 I12 N4'
_cell_volume   886.25251953
_cell_formula_units_Z   2
loop_
 _symmetry_equiv_pos_site_id
 _symmetry_equiv_pos_as_xyz
  1  'x, y, z'
loop_
 _atom_site_type_symbol
 _atom_site_label
 _atom_site_symmetry_multiplicity
 _atom_site_fract_x
 _atom_site_fract_y
 _atom_site_fract_z
 _atom_site_occupancy
  C  C0  1  0.35785191  0.25782807  0.36677064  1
  C  C1  1  0.83363587  0.25495975  0.12893096  1
  C  C2  1  0.66641313  0.75514326  0.62886972  1
  C  C3  1  0.14213702  0.75771633  0.86701726  1
  N  N4  1  0.46260736  0.25408994  0.49901862  1
  N  N5  1  0.95138828  0.25532063  0.00278528  1
  N  N6  1  0.54781238  0.75526269  0.50315213  1
  N  N7  1  0.03790456  0.75395705  0.99947453  1
  H  H8  1  0.44081638  0.23074420  0.27603727  1
  H  H9  1  0.24018396  0.20632995  0.37237557  1
  H  H10  1  0.31124951  0.33971533  0.35630608  1
  H  H11  1  0.52627138  0.18106294  0.50503378  1
  H  H12  1  0.56045678  0.31415172  0.50221084  1
  H  H13  1  0.38621022  0.26664171  0.59067109  1
  H  H14  1  0.91699512  0.25247712  0.22370790  1
  H  H15  1  0.74453709  0.18562787  0.11664874  1
  H  H16  1  0.75590623  0.32914846  0.13651574  1
  H  H17  1  0.02726596  0.18639970  0.98818250  1
  H  H18  1  0.03942356  0.32089730  0.01555314  1
  H  H19  1  0.87680737  0.26161270  0.91141009  1
  H  H20  1  0.58369881  0.75253478  0.72394944  1
  H  H21  1  0.75584647  0.68596837  0.61631273  1
  H  H22  1  0.74374312  0.82947049  0.63615123  1
  H  H23  1  0.45958780  0.82075016  0.51613719  1
  H  H24  1  0.47209801  0.68625854  0.48893226  1
  H  H25  1  0.62165892  0.76154920  0.41144514  1
  H  H26  1  0.05875383  0.73078741  0.77643589  1
  H  H27  1  0.18884058  0.83957878  0.85657974  1
  H  H28  1  0.25972296  0.70608737  0.87226186  1
  H  H29  1  0.93991244  0.81394462  0.00280734  1
  H  H30  1  0.97450542  0.68089045  0.00572864  1
  H  H31  1  0.11462960  0.76661708  0.09096424  1
  Be  Be32  1  0.56890270  0.93166313  0.10369243  1
  Be  Be33  1  0.93116282  0.43180448  0.60341091  1
  Sr  Sr34  1  0.08859483  0.99961782  0.40410856  1
  Sr  Sr35  1  0.41157610  0.49951887  0.90406686  1
  I  I36  1  0.45345038  0.25633937  0.87403518  1
  I  I37  1  0.26787531  0.00949539  0.09237909  1
  I  I38  1  0.66915217  0.00986067  0.33635218  1
  I  I39  1  0.95089444  0.23670292  0.61040797  1
  I  I40  1  0.33263706  0.98277665  0.66189936  1
  I  I41  1  0.76903766  0.97665978  0.92365837  1
  I  I42  1  0.54924668  0.73655134  0.11068493  1
  I  I43  1  0.73112584  0.47692137  0.42328038  1
  I  I44  1  0.16711990  0.48270703  0.16153865  1
  I  I45  1  0.04722930  0.75640957  0.37418861  1
  I  I46  1  0.23234837  0.50945316  0.59228758  1
  I  I47  1  0.83079816  0.51007275  0.83592794  1
