# generated using pymatgen
data_ZnBH12C2(Br3N)2
_symmetry_space_group_name_H-M   'P 1'
_cell_length_a   7.37721151
_cell_length_b   11.20339936
_cell_length_c   8.84623990
_cell_angle_alpha   87.85767590
_cell_angle_beta   77.46247889
_cell_angle_gamma   86.74126669
_symmetry_Int_Tables_number   1
_chemical_formula_structural   ZnBH12C2(Br3N)2
_chemical_formula_sum   'Zn2 B2 H24 C4 Br12 N4'
_cell_volume   712.31632148
_cell_formula_units_Z   2
loop_
 _symmetry_equiv_pos_site_id
 _symmetry_equiv_pos_as_xyz
  1  'x, y, z'
loop_
 _atom_site_type_symbol
 _atom_site_label
 _atom_site_symmetry_multiplicity
 _atom_site_fract_x
 _atom_site_fract_y
 _atom_site_fract_z
 _atom_site_occupancy
  C  C0  1  0.44931874  0.24785418  0.36465409  1
  C  C1  1  0.94607385  0.22594608  0.07134450  1
  C  C2  1  0.55711039  0.76837188  0.62565771  1
  C  C3  1  0.11665177  0.75671420  0.90648506  1
  N  N4  1  0.52733417  0.22266601  0.50458613  1
  N  N5  1  0.06982166  0.28142223  0.93465632  1
  N  N6  1  0.39093040  0.78259056  0.55611825  1
  N  N7  1  0.97752338  0.74729498  0.05473842  1
  H  H8  1  0.56056658  0.26251691  0.26294818  1
  H  H9  1  0.37201206  0.17125795  0.34561962  1
  H  H10  1  0.35692928  0.32819984  0.38391940  1
  H  H11  1  0.65417246  0.17411001  0.48196747  1
  H  H12  1  0.54288650  0.30007567  0.56014790  1
  H  H13  1  0.43687659  0.16967129  0.58565491  1
  H  H14  1  0.02363016  0.20963987  0.16319984  1
  H  H15  1  0.89760215  0.14247966  0.03754625  1
  H  H16  1  0.82728877  0.28849797  0.11014830  1
  H  H17  1  0.16165852  0.21752967  0.87240849  1
  H  H18  1  0.14589537  0.34694274  0.97120953  1
  H  H19  1  0.99245266  0.32310322  0.86138772  1
  H  H20  1  0.51271213  0.77020364  0.75178154  1
  H  H21  1  0.62814991  0.68213259  0.59262336  1
  H  H22  1  0.64769109  0.84226110  0.58427788  1
  H  H23  1  0.31649424  0.86331337  0.59189914  1
  H  H24  1  0.31020860  0.70919527  0.58964451  1
  H  H25  1  0.42673137  0.78418478  0.43551911  1
  H  H26  1  0.04030676  0.76145573  0.81284840  1
  H  H27  1  0.19197162  0.83822665  0.90614351  1
  H  H28  1  0.20968366  0.67629392  0.89675571  1
  H  H29  1  0.88792729  0.82297021  0.06947675  1
  H  H30  1  0.89614413  0.67454124  0.05174764  1
  H  H31  1  0.04043508  0.73683426  0.14833826  1
  B  B32  1  0.51147684  0.91740383  0.12104440  1
  B  B33  1  0.90890530  0.50418620  0.41790756  1
  Zn  Zn34  1  0.92782467  0.03232495  0.52734584  1
  Zn  Zn35  1  0.51560376  0.44624347  0.88072444  1
  Br  Br36  1  0.60251448  0.23829832  0.86159605  1
  Br  Br37  1  0.27272075  0.01695119  0.14311551  1
  Br  Br38  1  0.66290836  0.96233567  0.27887556  1
  Br  Br39  1  0.96753384  0.35723825  0.51499130  1
  Br  Br40  1  0.23063667  0.04489594  0.70439252  1
  Br  Br41  1  0.68116349  0.93312218  0.90927360  1
  Br  Br42  1  0.44218689  0.74415979  0.16324722  1
  Br  Br43  1  0.72909180  0.50879532  0.29214025  1
  Br  Br44  1  0.26942626  0.47078482  0.11460834  1
  Br  Br45  1  0.01214706  0.65258038  0.45016708  1
  Br  Br46  1  0.35558903  0.49191704  0.66758743  1
  Br  Br47  1  0.79510320  0.55034324  0.86782562  1
