# generated using pymatgen
data_CuBH12C2(Br3N)2
_symmetry_space_group_name_H-M   'P 1'
_cell_length_a   7.72876272
_cell_length_b   9.71397793
_cell_length_c   9.24802075
_cell_angle_alpha   95.82919964
_cell_angle_beta   90.59472269
_cell_angle_gamma   90.80004308
_symmetry_Int_Tables_number   1
_chemical_formula_structural   CuBH12C2(Br3N)2
_chemical_formula_sum   'Cu2 B2 H24 C4 Br12 N4'
_cell_volume   690.60777896
_cell_formula_units_Z   2
loop_
 _symmetry_equiv_pos_site_id
 _symmetry_equiv_pos_as_xyz
  1  'x, y, z'
loop_
 _atom_site_type_symbol
 _atom_site_label
 _atom_site_symmetry_multiplicity
 _atom_site_fract_x
 _atom_site_fract_y
 _atom_site_fract_z
 _atom_site_occupancy
  C  C0  1  0.49892914  0.27350471  0.43148761  1
  C  C1  1  0.97099588  0.21334325  0.05960061  1
  C  C2  1  0.52784113  0.70209905  0.58120363  1
  C  C3  1  0.02286982  0.80412054  0.92133291  1
  N  N4  1  0.55222012  0.27255667  0.58573705  1
  N  N5  1  0.03651293  0.20442401  0.90897876  1
  N  N6  1  0.46426811  0.77923776  0.46087372  1
  N  N7  1  0.95391780  0.74994520  0.05399888  1
  H  H8  1  0.61304067  0.25679207  0.36341277  1
  H  H9  1  0.40317091  0.19040007  0.40643182  1
  H  H10  1  0.44023374  0.37300569  0.41621898  1
  H  H11  1  0.60426580  0.17745243  0.60970522  1
  H  H12  1  0.64666377  0.34655932  0.61752689  1
  H  H13  1  0.44771186  0.29161273  0.65392572  1
  H  H14  1  0.07850177  0.23374195  0.13696501  1
  H  H15  1  0.90479849  0.11628523  0.07769828  1
  H  H16  1  0.87958736  0.29867299  0.07327199  1
  H  H17  1  0.13118254  0.13136533  0.88659241  1
  H  H18  1  0.09112076  0.29826026  0.88424698  1
  H  H19  1  0.93619320  0.17474964  0.83444723  1
  H  H20  1  0.41662997  0.65503003  0.63098353  1
  H  H21  1  0.61863917  0.62349488  0.53765418  1
  H  H22  1  0.59497495  0.77614167  0.66050324  1
  H  H23  1  0.38154560  0.85801935  0.50315568  1
  H  H24  1  0.39451354  0.71512740  0.38421576  1
  H  H25  1  0.56605194  0.82641618  0.40917787  1
  H  H26  1  0.91514850  0.82653013  0.85012519  1
  H  H27  1  0.09845428  0.89853872  0.95222622  1
  H  H28  1  0.10582005  0.72557314  0.86573764  1
  H  H29  1  0.88821676  0.82339915  0.12335099  1
  H  H30  1  0.87067079  0.66648020  0.02353993  1
  H  H31  1  0.05078392  0.71041121  0.11600054  1
  B  B32  1  0.41647308  0.98911556  0.09538565  1
  B  B33  1  0.99526141  0.51973968  0.37741815  1
  Cu  Cu34  1  0.94648471  0.98676713  0.53549553  1
  Cu  Cu35  1  0.52437739  0.48859578  0.87502145  1
  Br  Br36  1  0.47919157  0.16772424  0.04137401  1
  Br  Br37  1  0.24370658  0.97775461  0.24111226  1
  Br  Br38  1  0.77909829  0.96725410  0.31466995  1
  Br  Br39  1  0.00501008  0.33544789  0.45829016  1
  Br  Br40  1  0.22979069  0.02473718  0.63542292  1
  Br  Br41  1  0.73567071  0.02483198  0.72875086  1
  Br  Br42  1  0.49842938  0.82120614  0.99452939  1
  Br  Br43  1  0.76636261  0.53216950  0.26563783  1
  Br  Br44  1  0.20075958  0.53362393  0.23422650  1
  Br  Br45  1  0.01924328  0.68024947  0.53219713  1
  Br  Br46  1  0.24774053  0.47248866  0.81022981  1
  Br  Br47  1  0.80694858  0.48508142  0.84020774  1
