# generated using pymatgen
data_ScBH12C2(Br3N)2
_symmetry_space_group_name_H-M   'P 1'
_cell_length_a   8.14060489
_cell_length_b   11.01222097
_cell_length_c   7.82748842
_cell_angle_alpha   92.68327042
_cell_angle_beta   89.93918198
_cell_angle_gamma   90.43795568
_symmetry_Int_Tables_number   1
_chemical_formula_structural   ScBH12C2(Br3N)2
_chemical_formula_sum   'Sc2 B2 H24 C4 Br12 N4'
_cell_volume   700.91411397
_cell_formula_units_Z   2
loop_
 _symmetry_equiv_pos_site_id
 _symmetry_equiv_pos_as_xyz
  1  'x, y, z'
loop_
 _atom_site_type_symbol
 _atom_site_label
 _atom_site_symmetry_multiplicity
 _atom_site_fract_x
 _atom_site_fract_y
 _atom_site_fract_z
 _atom_site_occupancy
  C  C0  1  0.44539468  0.24925267  0.44547075  1
  C  C1  1  0.94193046  0.25146100  0.05817621  1
  C  C2  1  0.56048847  0.75376332  0.56741186  1
  C  C3  1  0.06305414  0.74297126  0.93387678  1
  N  N4  1  0.59487704  0.25087337  0.55401002  1
  N  N5  1  0.09094909  0.25003582  0.94875009  1
  N  N6  1  0.40948116  0.74146200  0.46199504  1
  N  N7  1  0.91033153  0.75741962  0.03604502  1
  H  H8  1  0.48264876  0.24559253  0.31099899  1
  H  H9  1  0.37295601  0.16869971  0.47399556  1
  H  H10  1  0.37404350  0.33112718  0.47537644  1
  H  H11  1  0.66883142  0.17725104  0.51934673  1
  H  H12  1  0.66496548  0.32835527  0.54001089  1
  H  H13  1  0.56638076  0.24765334  0.68425012  1
  H  H14  1  0.97990666  0.25700277  0.19239660  1
  H  H15  1  0.87039504  0.16849863  0.03081952  1
  H  H16  1  0.86938895  0.33080481  0.02828586  1
  H  H17  1  0.16061415  0.17344547  0.96494448  1
  H  H18  1  0.16536829  0.32454992  0.98164125  1
  H  H19  1  0.06240566  0.25156997  0.81849209  1
  H  H20  1  0.52493466  0.76643192  0.70186678  1
  H  H21  1  0.63356946  0.67141107  0.54903557  1
  H  H22  1  0.63006915  0.83278290  0.52723723  1
  H  H23  1  0.33270087  0.81480227  0.48878117  1
  H  H24  1  0.34385071  0.66379014  0.48968716  1
  H  H25  1  0.43561111  0.73730025  0.33101137  1
  H  H26  1  0.02997807  0.73112832  0.79869267  1
  H  H27  1  0.13971352  0.82412609  0.95433499  1
  H  H28  1  0.12783998  0.66291027  0.97518347  1
  H  H29  1  0.84790729  0.83520392  0.00541374  1
  H  H30  1  0.83150813  0.68441136  0.00911411  1
  H  H31  1  0.93396486  0.76270189  0.16745706  1
  B  B32  1  0.43053990  0.99700270  0.03169714  1
  B  B33  1  0.94049706  0.51120191  0.45025092  1
  Sc  Sc34  1  0.97431438  0.99917923  0.54089549  1
  Sc  Sc35  1  0.47613300  0.50204081  0.95900151  1
  Br  Br36  1  0.50906859  0.26567638  0.96757625  1
  Br  Br37  1  0.23288288  0.01201951  0.18818893  1
  Br  Br38  1  0.74590456  0.01160253  0.30986734  1
  Br  Br39  1  0.01084175  0.23410638  0.53377123  1
  Br  Br40  1  0.26588784  0.98982685  0.68529545  1
  Br  Br41  1  0.79469002  0.99007714  0.79700058  1
  Br  Br42  1  0.50470665  0.73415510  0.04937376  1
  Br  Br43  1  0.73697872  0.49268428  0.30349487  1
  Br  Br44  1  0.24974781  0.48643595  0.19384797  1
  Br  Br45  1  0.00421030  0.76692170  0.44875508  1
  Br  Br46  1  0.29233923  0.50857737  0.70618321  1
  Br  Br47  1  0.76522195  0.50978035  0.81098724  1
