# generated using pymatgen
data_CaBH12C2(Br3N)2
_symmetry_space_group_name_H-M   'P 1'
_cell_length_a   6.76996853
_cell_length_b   10.68655946
_cell_length_c   10.39671684
_cell_angle_alpha   94.26376655
_cell_angle_beta   79.36680458
_cell_angle_gamma   92.33935804
_symmetry_Int_Tables_number   1
_chemical_formula_structural   CaBH12C2(Br3N)2
_chemical_formula_sum   'Ca2 B2 H24 C4 Br12 N4'
_cell_volume   736.93443561
_cell_formula_units_Z   2
loop_
 _symmetry_equiv_pos_site_id
 _symmetry_equiv_pos_as_xyz
  1  'x, y, z'
loop_
 _atom_site_type_symbol
 _atom_site_label
 _atom_site_symmetry_multiplicity
 _atom_site_fract_x
 _atom_site_fract_y
 _atom_site_fract_z
 _atom_site_occupancy
  C  C0  1  0.45570102  0.17778895  0.50151531  1
  C  C1  1  0.00940364  0.21907887  0.99589872  1
  C  C2  1  0.41517040  0.84489849  0.49986202  1
  C  C3  1  0.19810738  0.71285468  0.77082614  1
  N  N4  1  0.63364338  0.21446428  0.56162412  1
  N  N5  1  0.01983741  0.26249407  0.86127304  1
  N  N6  1  0.34619724  0.86270061  0.37635670  1
  N  N7  1  0.78350394  0.77603408  0.25853633  1
  H  H8  1  0.40381517  0.25985730  0.46171099  1
  H  H9  1  0.50194589  0.10731372  0.42084018  1
  H  H10  1  0.33425672  0.13993090  0.57428245  1
  H  H11  1  0.75639706  0.23466512  0.48794124  1
  H  H12  1  0.60539904  0.29135220  0.62941979  1
  H  H13  1  0.68360988  0.14214195  0.60911189  1
  H  H14  1  0.13377002  0.26317079  0.03820233  1
  H  H15  1  0.02173803  0.11708661  0.98973876  1
  H  H16  1  0.86705033  0.24708906  0.05695709  1
  H  H17  1  0.16742400  0.29124566  0.82376968  1
  H  H18  1  0.93444321  0.34195463  0.86663096  1
  H  H19  1  0.97343632  0.19250039  0.79682169  1
  H  H20  1  0.36947864  0.75036226  0.52988655  1
  H  H21  1  0.57923696  0.85380820  0.49290637  1
  H  H22  1  0.34566419  0.91252010  0.57782965  1
  H  H23  1  0.14860206  0.79611835  0.73177251  1
  H  H24  1  0.36314342  0.78117376  0.31694683  1
  H  H25  1  0.42953993  0.93074641  0.32366580  1
  H  H26  1  0.08108184  0.69266487  0.85569806  1
  H  H27  1  0.20688012  0.63211950  0.69902645  1
  H  H28  1  0.34726605  0.73613206  0.79503790  1
  H  H29  1  0.71234546  0.82853689  0.20283629  1
  H  H30  1  0.67491650  0.72513422  0.31648982  1
  H  H31  1  0.85498533  0.70800823  0.19239894  1
  B  B32  1  0.45252151  0.94431613  0.99396511  1
  B  B33  1  0.96088557  0.52535145  0.44289429  1
  Ca  Ca34  1  0.99471320  0.91257608  0.38931628  1
  Ca  Ca35  1  0.28756099  0.60013772  0.99519051  1
  Br  Br36  1  0.55888599  0.05909940  0.12743406  1
  Br  Br37  1  0.17413398  0.86805889  0.07917883  1
  Br  Br38  1  0.98130934  0.14802025  0.30537570  1
  Br  Br39  1  0.05591489  0.41130862  0.56244966  1
  Br  Br40  1  0.41391247  0.03200746  0.83827705  1
  Br  Br41  1  0.93956204  0.01736455  0.65548795  1
  Br  Br42  1  0.63604515  0.79324050  0.94249854  1
  Br  Br43  1  0.72593144  0.46109646  0.36640393  1
  Br  Br44  1  0.21954592  0.55316793  0.29151370  1
  Br  Br45  1  0.88866631  0.69038002  0.54910463  1
  Br  Br46  1  0.46773956  0.40736033  0.82548719  1
  Br  Br47  1  0.88470476  0.53064527  0.01990455  1
