# generated using pymatgen
data_BPH12C2(Br3N)2
_symmetry_space_group_name_H-M   'P 1'
_cell_length_a   7.99286102
_cell_length_b   10.52336196
_cell_length_c   8.28257210
_cell_angle_alpha   88.88986408
_cell_angle_beta   90.30137076
_cell_angle_gamma   89.71757472
_symmetry_Int_Tables_number   1
_chemical_formula_structural   BPH12C2(Br3N)2
_chemical_formula_sum   'B2 P2 H24 C4 Br12 N4'
_cell_volume   696.51257844
_cell_formula_units_Z   2
loop_
 _symmetry_equiv_pos_site_id
 _symmetry_equiv_pos_as_xyz
  1  'x, y, z'
loop_
 _atom_site_type_symbol
 _atom_site_label
 _atom_site_symmetry_multiplicity
 _atom_site_fract_x
 _atom_site_fract_y
 _atom_site_fract_z
 _atom_site_occupancy
  C  C0  1  0.47740917  0.25244937  0.44087642  1
  C  C1  1  0.96449606  0.24180392  0.06441562  1
  C  C2  1  0.52330166  0.75110556  0.56353803  1
  C  C3  1  0.01302638  0.74628050  0.92644499  1
  N  N4  1  0.55764389  0.24828374  0.60324159  1
  N  N5  1  0.05130880  0.25895232  0.90738506  1
  N  N6  1  0.44375781  0.75067022  0.40026100  1
  N  N7  1  0.94129245  0.75881104  0.09051707  1
  H  H8  1  0.57465228  0.26124190  0.34914015  1
  H  H9  1  0.40737757  0.16449643  0.42373409  1
  H  H10  1  0.39154955  0.33372252  0.43355901  1
  H  H11  1  0.63881483  0.17097646  0.61939049  1
  H  H12  1  0.62694348  0.32953063  0.62664786  1
  H  H13  1  0.47035007  0.24111999  0.69472228  1
  H  H14  1  0.05735941  0.23817791  0.16161242  1
  H  H15  1  0.89401864  0.15310023  0.06270702  1
  H  H16  1  0.87888339  0.32195646  0.08011650  1
  H  H17  1  0.12080420  0.17909903  0.87648527  1
  H  H18  1  0.13283124  0.33591200  0.90561714  1
  H  H19  1  0.96636388  0.27574839  0.81456126  1
  H  H20  1  0.42652602  0.73592532  0.65454044  1
  H  H21  1  0.61663007  0.67469793  0.57088214  1
  H  H22  1  0.58430596  0.84286157  0.57966304  1
  H  H23  1  0.35696067  0.82351156  0.38441979  1
  H  H24  1  0.38029641  0.66695604  0.37821998  1
  H  H25  1  0.53015274  0.76369686  0.30838409  1
  H  H26  1  0.91064066  0.74132456  0.83904450  1
  H  H27  1  0.09063687  0.82919951  0.89997509  1
  H  H28  1  0.08890907  0.65952205  0.92406905  1
  H  H29  1  0.86626810  0.83875821  0.10101991  1
  H  H30  1  0.86886030  0.68040217  0.12370021  1
  H  H31  1  0.03399303  0.76594242  0.17734974  1
  B  B32  1  0.39597523  0.99530482  0.99844554  1
  B  B33  1  0.00295503  0.50409461  0.38482414  1
  P  P34  1  0.97792148  0.99629443  0.52842745  1
  P  P35  1  0.53772073  0.48757724  0.97067130  1
  Br  Br36  1  0.51428738  0.16200294  0.02340832  1
  Br  Br37  1  0.22061585  0.98395767  0.18071287  1
  Br  Br38  1  0.76652399  0.99017517  0.33407610  1
  Br  Br39  1  0.01713542  0.33118511  0.49466503  1
  Br  Br40  1  0.28340349  0.00996883  0.77280471  1
  Br  Br41  1  0.80780717  0.01913188  0.75176707  1
  Br  Br42  1  0.52143662  0.82704556  0.00259258  1
  Br  Br43  1  0.76593886  0.51425195  0.28022397  1
  Br  Br44  1  0.18771546  0.50948693  0.21126331  1
  Br  Br45  1  0.02813250  0.66598476  0.50939855  1
  Br  Br46  1  0.32485396  0.48178319  0.77666459  1
  Br  Br47  1  0.76123587  0.48559634  0.79410979  1
