# generated using pymatgen
data_SiBH12C2(Br3N)2
_symmetry_space_group_name_H-M   'P 1'
_cell_length_a   8.27612081
_cell_length_b   10.44499491
_cell_length_c   8.31541590
_cell_angle_alpha   89.51230493
_cell_angle_beta   89.24285595
_cell_angle_gamma   87.65469673
_symmetry_Int_Tables_number   1
_chemical_formula_structural   SiBH12C2(Br3N)2
_chemical_formula_sum   'Si2 B2 H24 C4 Br12 N4'
_cell_volume   718.13045827
_cell_formula_units_Z   2
loop_
 _symmetry_equiv_pos_site_id
 _symmetry_equiv_pos_as_xyz
  1  'x, y, z'
loop_
 _atom_site_type_symbol
 _atom_site_label
 _atom_site_symmetry_multiplicity
 _atom_site_fract_x
 _atom_site_fract_y
 _atom_site_fract_z
 _atom_site_occupancy
  C  C0  1  0.46869216  0.23794412  0.44453147  1
  C  C1  1  0.95138014  0.23291258  0.05194227  1
  C  C2  1  0.51867804  0.75791899  0.54092250  1
  C  C3  1  0.05289382  0.74583523  0.94835581  1
  N  N4  1  0.58655730  0.23885776  0.57810119  1
  N  N5  1  0.06555340  0.26694203  0.92072079  1
  N  N6  1  0.40987493  0.74269211  0.40583134  1
  N  N7  1  0.95714804  0.76356431  0.10008397  1
  H  H8  1  0.52928975  0.26976496  0.33450912  1
  H  H9  1  0.42913070  0.14003036  0.42997121  1
  H  H10  1  0.36485888  0.30220256  0.47398733  1
  H  H11  1  0.68457085  0.17550027  0.55659026  1
  H  H12  1  0.63163542  0.32859424  0.59522848  1
  H  H13  1  0.53500583  0.20999234  0.68616146  1
  H  H14  1  0.01887587  0.21745669  0.16280802  1
  H  H15  1  0.89294220  0.14547863  0.01834972  1
  H  H16  1  0.86233227  0.31217368  0.06722410  1
  H  H17  1  0.14469753  0.19026256  0.89097900  1
  H  H18  1  0.13331091  0.34346250  0.95343788  1
  H  H19  1  0.00674819  0.29308770  0.81541547  1
  H  H20  1  0.44935952  0.75308336  0.65432794  1
  H  H21  1  0.62100540  0.68648170  0.54793527  1
  H  H22  1  0.57074423  0.85296210  0.53446969  1
  H  H23  1  0.05343911  0.86930794  0.49808247  1
  H  H24  1  0.35989527  0.65471920  0.40950961  1
  H  H25  1  0.47166398  0.74876549  0.29881383  1
  H  H26  1  0.97383465  0.71041525  0.85564599  1
  H  H27  1  0.09923158  0.83813936  0.91103318  1
  H  H28  1  0.15234800  0.67619958  0.97104534  1
  H  H29  1  0.86648346  0.83469209  0.08929585  1
  H  H30  1  0.90182054  0.68011980  0.13573744  1
  H  H31  1  0.02845917  0.78996082  0.19452139  1
  B  B32  1  0.41307073  0.01090827  0.97995332  1
  B  B33  1  0.97521217  0.49022164  0.38888172  1
  Si  Si34  1  0.02411544  0.01314849  0.50329754  1
  Si  Si35  1  0.50660212  0.46350724  0.97155151  1
  Br  Br36  1  0.54625685  0.17967404  0.00566420  1
  Br  Br37  1  0.25033463  0.01126828  0.15970611  1
  Br  Br38  1  0.79678079  0.00862295  0.32125069  1
  Br  Br39  1  0.99548533  0.32035627  0.50443432  1
  Br  Br40  1  0.31199654  0.02982511  0.75895944  1
  Br  Br41  1  0.85245548  0.00772365  0.74009209  1
  Br  Br42  1  0.55506639  0.84990281  0.98979104  1
  Br  Br43  1  0.75192122  0.50807482  0.28280508  1
  Br  Br44  1  0.15943424  0.48590577  0.21513958  1
  Br  Br45  1  0.00359720  0.64213366  0.52415023  1
  Br  Br46  1  0.32598843  0.47739887  0.76014310  1
  Br  Br47  1  0.73924502  0.49188608  0.81890722  1
