# generated using pymatgen
data_AlBH12C2(Br3N)2
_symmetry_space_group_name_H-M   'P 1'
_cell_length_a   7.84730098
_cell_length_b   10.29038199
_cell_length_c   9.13708137
_cell_angle_alpha   91.02302106
_cell_angle_beta   91.21755108
_cell_angle_gamma   86.58628593
_symmetry_Int_Tables_number   1
_chemical_formula_structural   AlBH12C2(Br3N)2
_chemical_formula_sum   'Al2 B2 H24 C4 Br12 N4'
_cell_volume   736.25784287
_cell_formula_units_Z   2
loop_
 _symmetry_equiv_pos_site_id
 _symmetry_equiv_pos_as_xyz
  1  'x, y, z'
loop_
 _atom_site_type_symbol
 _atom_site_label
 _atom_site_symmetry_multiplicity
 _atom_site_fract_x
 _atom_site_fract_y
 _atom_site_fract_z
 _atom_site_occupancy
  C  C0  1  0.44719579  0.19998629  0.46201248  1
  C  C1  1  0.98126499  0.23386893  0.01706306  1
  C  C2  1  0.42452086  0.78352061  0.45470968  1
  C  C3  1  0.08558854  0.73982682  0.01120623  1
  N  N4  1  0.52975987  0.23104201  0.60516194  1
  N  N5  1  0.11405308  0.29230870  0.92960629  1
  N  N6  1  0.37142921  0.72242299  0.31491230  1
  N  N7  1  0.06214097  0.76962720  0.16915705  1
  H  H8  1  0.49009200  0.26568580  0.37928428  1
  H  H9  1  0.48470881  0.09975467  0.43004366  1
  H  H10  1  0.30850774  0.21253286  0.47306760  1
  H  H11  1  0.66173390  0.23505121  0.59815197  1
  H  H12  1  0.48055894  0.32145545  0.64608933  1
  H  H13  1  0.50718975  0.16172414  0.68223912  1
  H  H14  1  0.03851714  0.19804487  0.11949591  1
  H  H15  1  0.93134691  0.15289849  0.95346774  1
  H  H16  1  0.87973477  0.30862688  0.03823882  1
  H  H17  1  0.19200594  0.21951187  0.88037911  1
  H  H18  1  0.19168589  0.35132160  0.99155961  1
  H  H19  1  0.05872021  0.34889685  0.84663946  1
  H  H20  1  0.33193894  0.76593396  0.53941913  1
  H  H21  1  0.55193558  0.74673051  0.49360931  1
  H  H22  1  0.42682929  0.88893753  0.44035660  1
  H  H23  1  0.15400942  0.98055129  0.48396830  1
  H  H24  1  0.38216949  0.62324325  0.32483430  1
  H  H25  1  0.45530199  0.74316881  0.23481662  1
  H  H26  1  0.96493552  0.75707718  0.95011482  1
  H  H27  1  0.18139696  0.80209011  0.96955339  1
  H  H28  1  0.13127943  0.63755850  0.99827378  1
  H  H29  1  0.01575339  0.86500546  0.18599447  1
  H  H30  1  0.97254754  0.71295062  0.21180808  1
  H  H31  1  0.18456723  0.75399254  0.23476812  1
  B  B32  1  0.43793969  0.00848482  0.98412779  1
  B  B33  1  0.93017916  0.50362644  0.36464857  1
  Al  Al34  1  0.96413599  0.03497225  0.50804733  1
  Al  Al35  1  0.47709690  0.51128358  0.95508627  1
  Br  Br36  1  0.57031939  0.17197456  0.97241222  1
  Br  Br37  1  0.29623030  0.02593770  0.16620463  1
  Br  Br38  1  0.80690823  0.02768273  0.28868752  1
  Br  Br39  1  0.96028156  0.25837333  0.58200218  1
  Br  Br40  1  0.28979402  0.00221583  0.79643233  1
  Br  Br41  1  0.81166964  0.93959413  0.68723818  1
  Br  Br42  1  0.58692870  0.84134232  0.99330282  1
  Br  Br43  1  0.71804082  0.45170995  0.28152541  1
  Br  Br44  1  0.14324524  0.44300403  0.27719838  1
  Br  Br45  1  0.92817655  0.63993303  0.50757045  1
  Br  Br46  1  0.32002625  0.50189818  0.71006851  1
  Br  Br47  1  0.76563120  0.51269739  0.85574142  1
