# generated using pymatgen
data_MgBH12C2(Br3N)2
_symmetry_space_group_name_H-M   'P 1'
_cell_length_a   8.24046745
_cell_length_b   10.67535176
_cell_length_c   8.23932718
_cell_angle_alpha   90.88240226
_cell_angle_beta   89.78986303
_cell_angle_gamma   91.44642119
_symmetry_Int_Tables_number   1
_chemical_formula_structural   MgBH12C2(Br3N)2
_chemical_formula_sum   'Mg2 B2 H24 C4 Br12 N4'
_cell_volume   724.49191907
_cell_formula_units_Z   2
loop_
 _symmetry_equiv_pos_site_id
 _symmetry_equiv_pos_as_xyz
  1  'x, y, z'
loop_
 _atom_site_type_symbol
 _atom_site_label
 _atom_site_symmetry_multiplicity
 _atom_site_fract_x
 _atom_site_fract_y
 _atom_site_fract_z
 _atom_site_occupancy
  C  C0  1  0.47819948  0.25297491  0.45684719  1
  C  C1  1  0.95333340  0.25144763  0.06619153  1
  C  C2  1  0.54998224  0.74200655  0.56561995  1
  C  C3  1  0.03137742  0.73439092  0.94835314  1
  N  N4  1  0.58632709  0.24829871  0.59996242  1
  N  N5  1  0.00589258  0.26937985  0.89526591  1
  N  N6  1  0.47476399  0.73667782  0.40218507  1
  N  N7  1  0.91620209  0.75222227  0.08617510  1
  H  H8  1  0.55335182  0.26038089  0.34798510  1
  H  H9  1  0.40196957  0.16769778  0.45160734  1
  H  H10  1  0.40200658  0.33486500  0.47086482  1
  H  H11  1  0.65779842  0.16987026  0.59805439  1
  H  H12  1  0.66265861  0.32778616  0.61078897  1
  H  H13  1  0.51949408  0.24677522  0.70654053  1
  H  H14  1  0.05785082  0.23297343  0.14246479  1
  H  H15  1  0.86767398  0.17146182  0.07083165  1
  H  H16  1  0.89468066  0.33653069  0.10982418  1
  H  H17  1  0.00709357  0.18530093  0.83059441  1
  H  H18  1  0.11850541  0.31568059  0.88378028  1
  H  H19  1  0.92538679  0.32722456  0.83527502  1
  H  H20  1  0.47141489  0.69100224  0.65069448  1
  H  H21  1  0.66909214  0.69879496  0.55870926  1
  H  H22  1  0.56431255  0.83999643  0.60519571  1
  H  H23  1  0.35201645  0.75745806  0.40803224  1
  H  H24  1  0.48786874  0.64913381  0.34760964  1
  H  H25  1  0.53174543  0.80109908  0.32550865  1
  H  H26  1  0.96183757  0.71571392  0.83746890  1
  H  H27  1  0.10593999  0.81979951  0.93551019  1
  H  H28  1  0.10869216  0.65517027  0.97339504  1
  H  H29  1  0.83347586  0.82113504  0.06236644  1
  H  H30  1  0.84793872  0.67101358  0.11033872  1
  H  H31  1  0.97551573  0.77684057  0.19422684  1
  B  B32  1  0.35548500  0.07475600  0.98050611  1
  B  B33  1  0.04459428  0.48431275  0.43194973  1
  Mg  Mg34  1  0.92090868  0.99583189  0.51523592  1
  Mg  Mg35  1  0.54821819  0.54118778  0.95226390  1
  Br  Br36  1  0.51433741  0.20466617  0.01842546  1
  Br  Br37  1  0.23861019  0.00903816  0.16093510  1
  Br  Br38  1  0.70327004  0.98763250  0.30880967  1
  Br  Br39  1  0.03553402  0.21442114  0.49223895  1
  Br  Br40  1  0.30599958  0.02171354  0.76384075  1
  Br  Br41  1  0.80867089  0.99835202  0.79467217  1
  Br  Br42  1  0.50230334  0.76541380  0.99497094  1
  Br  Br43  1  0.67582648  0.49876247  0.22751283  1
  Br  Br44  1  0.20185696  0.49137439  0.24930079  1
  Br  Br45  1  0.08092291  0.80164722  0.46770326  1
  Br  Br46  1  0.31092845  0.45770662  0.78938772  1
  Br  Br47  1  0.77815848  0.49215835  0.76427539  1
