# generated using pymatgen
data_BH12C2(Br2N)3
_symmetry_space_group_name_H-M   'P 1'
_cell_length_a   7.96743553
_cell_length_b   10.38841090
_cell_length_c   8.17525195
_cell_angle_alpha   93.77997418
_cell_angle_beta   91.37017920
_cell_angle_gamma   84.40068129
_symmetry_Int_Tables_number   1
_chemical_formula_structural   BH12C2(Br2N)3
_chemical_formula_sum   'B2 H24 C4 Br12 N6'
_cell_volume   671.85965335
_cell_formula_units_Z   2
loop_
 _symmetry_equiv_pos_site_id
 _symmetry_equiv_pos_as_xyz
  1  'x, y, z'
loop_
 _atom_site_type_symbol
 _atom_site_label
 _atom_site_symmetry_multiplicity
 _atom_site_fract_x
 _atom_site_fract_y
 _atom_site_fract_z
 _atom_site_occupancy
  C  C0  1  0.51323403  0.24182263  0.52236739  1
  C  C1  1  0.89400055  0.28090169  0.00953665  1
  C  C2  1  0.39098647  0.71434379  0.51507432  1
  C  C3  1  0.00966219  0.69237694  0.96025028  1
  N  N4  1  0.58592559  0.26283094  0.69021313  1
  N  N5  1  0.03539165  0.32259268  0.92062929  1
  N  N6  1  0.59920094  0.90838024  0.35588026  1
  N  N7  1  0.99034231  0.72955076  0.13769917  1
  H  H8  1  0.61339821  0.24262434  0.43345625  1
  H  H9  1  0.46338448  0.14700397  0.50993072  1
  H  H10  1  0.41435295  0.31943156  0.49926700  1
  H  H11  1  0.64882973  0.17527301  0.72697512  1
  H  H12  1  0.67356289  0.32973391  0.68971489  1
  H  H13  1  0.49566922  0.30257172  0.77931878  1
  H  H14  1  0.93896336  0.24306141  0.12661017  1
  H  H15  1  0.83084842  0.20337613  0.94150071  1
  H  H16  1  0.80230472  0.36442417  0.03905777  1
  H  H17  1  0.09919184  0.24230160  0.86312350  1
  H  H18  1  0.25793794  0.38212442  0.96731357  1
  H  H19  1  0.98708737  0.37773919  0.82818118  1
  H  H20  1  0.42793016  0.78851064  0.60767944  1
  H  H21  1  0.49812528  0.67351360  0.43883591  1
  H  H22  1  0.66675313  0.91686770  0.46625026  1
  H  H23  1  0.29614219  0.83213932  0.35096900  1
  H  H24  1  0.42883343  0.46854745  0.00387026  1
  H  H25  1  0.62816632  0.81381034  0.30775960  1
  H  H26  1  0.88462097  0.70435522  0.90162067  1
  H  H27  1  0.09225672  0.75457061  0.90467056  1
  H  H28  1  0.06208979  0.59093208  0.94552889  1
  H  H29  1  0.94750641  0.82671987  0.15626377  1
  H  H30  1  0.89501473  0.67671660  0.18186507  1
  H  H31  1  0.10022380  0.71320085  0.20910147  1
  B  B32  1  0.30949165  0.95907911  0.96374221  1
  B  B33  1  0.97693004  0.39362293  0.46636068  1
  N  N34  1  0.25353410  0.75475057  0.40651074  1
  N  N35  1  0.38867687  0.38236921  0.95386379  1
  Br  Br36  1  0.48375335  0.25703470  0.10033966  1
  Br  Br37  1  0.17860319  0.02500984  0.14965943  1
  Br  Br38  1  0.71735729  0.00556788  0.21394305  1
  Br  Br39  1  0.97883569  0.21364554  0.50429559  1
  Br  Br40  1  0.30077673  0.05095670  0.76930231  1
  Br  Br41  1  0.77991858  0.96538232  0.73600417  1
  Br  Br42  1  0.44063202  0.79835793  0.97397964  1
  Br  Br43  1  0.66357844  0.58062512  0.18674181  1
  Br  Br44  1  0.11665615  0.44354410  0.30372253  1
  Br  Br45  1  0.05594744  0.84031493  0.53244570  1
  Br  Br46  1  0.34563293  0.56960966  0.64884495  1
  Br  Br47  1  0.83776151  0.51785837  0.60002529  1
