# generated using pymatgen
data_H12PbC3(Br3N)2
_symmetry_space_group_name_H-M   'P 1'
_cell_length_a   7.68314058
_cell_length_b   11.18200502
_cell_length_c   8.33548500
_cell_angle_alpha   88.64496607
_cell_angle_beta   89.98662136
_cell_angle_gamma   90.00435650
_symmetry_Int_Tables_number   1
_chemical_formula_structural   H12PbC3(Br3N)2
_chemical_formula_sum   'H24 Pb2 C6 Br12 N4'
_cell_volume   715.92554589
_cell_formula_units_Z   2
loop_
 _symmetry_equiv_pos_site_id
 _symmetry_equiv_pos_as_xyz
  1  'x, y, z'
loop_
 _atom_site_type_symbol
 _atom_site_label
 _atom_site_symmetry_multiplicity
 _atom_site_fract_x
 _atom_site_fract_y
 _atom_site_fract_z
 _atom_site_occupancy
  C  C0  1  0.47662621  0.23546559  0.42550051  1
  C  C1  1  0.99171897  0.25838800  0.07669589  1
  C  C2  1  0.50858219  0.75810470  0.57644991  1
  C  C3  1  0.02340992  0.73543111  0.92555186  1
  N  N4  1  0.55314052  0.24615954  0.58818414  1
  N  N5  1  0.04387784  0.25098043  0.90550241  1
  N  N6  1  0.45576116  0.75141248  0.40537318  1
  N  N7  1  0.94696627  0.74604959  0.08830851  1
  H  H8  1  0.58293966  0.22008422  0.34122788  1
  H  H9  1  0.38496275  0.16048003  0.42828167  1
  H  H10  1  0.40907209  0.31881975  0.39279216  1
  H  H11  1  0.62082266  0.16923242  0.62551350  1
  H  H12  1  0.64130292  0.31599625  0.59188429  1
  H  H13  1  0.45817009  0.26068673  0.67330441  1
  H  H14  1  0.10860595  0.26859449  0.14996312  1
  H  H15  1  0.92314241  0.17616279  0.11226591  1
  H  H16  1  0.90653376  0.33598972  0.09067291  1
  H  H17  1  0.12076150  0.17619648  0.88168780  1
  H  H18  1  0.11441056  0.32568527  0.86758495  1
  H  H19  1  0.93800199  0.24344006  0.82971496  1
  H  H20  1  0.39196372  0.76737450  0.65033586  1
  H  H21  1  0.57811702  0.67605629  0.61090032  1
  H  H22  1  0.59310903  0.83605503  0.59080590  1
  H  H23  1  0.38421948  0.82588148  0.36852992  1
  H  H24  1  0.37956868  0.67627905  0.38118600  1
  H  H25  1  0.56129346  0.74492692  0.32900690  1
  H  H26  1  0.91709582  0.71969186  0.84143775  1
  H  H27  1  0.09049055  0.81893031  0.89262949  1
  H  H28  1  0.11545403  0.66067189  0.92833081  1
  H  H29  1  0.85831972  0.81561280  0.09193404  1
  H  H30  1  0.87979706  0.66897370  0.12588382  1
  H  H31  1  0.04190505  0.76101634  0.17327490  1
  C  C32  1  0.99442187  0.96905030  0.43600977  1
  C  C33  1  0.50537806  0.46895125  0.93602826  1
  Pb  Pb34  1  0.50416954  0.00346626  0.99163294  1
  Pb  Pb35  1  0.99585752  0.50349772  0.49172559  1
  Br  Br36  1  0.49323163  0.29016652  0.00711015  1
  Br  Br37  1  0.18927218  0.98332241  0.25598406  1
  Br  Br38  1  0.76107656  0.98189474  0.30686330  1
  Br  Br39  1  0.98648781  0.25669122  0.49903154  1
  Br  Br40  1  0.27107770  0.02910147  0.73884847  1
  Br  Br41  1  0.78402683  0.02397447  0.78400154  1
  Br  Br42  1  0.51385430  0.75664924  0.99904590  1
  Br  Br43  1  0.71596805  0.52394732  0.28426643  1
  Br  Br44  1  0.22910178  0.52923926  0.23895135  1
  Br  Br45  1  0.00662086  0.79028516  0.50712036  1
  Br  Br46  1  0.31055942  0.48319554  0.75611237  1
  Br  Br47  1  0.73877660  0.48181558  0.80684888  1
