# generated using pymatgen
data_H6C2I3N
_symmetry_space_group_name_H-M   'P 1'
_cell_length_a   7.56102844
_cell_length_b   11.55669126
_cell_length_c   8.64204084
_cell_angle_alpha   79.06478503
_cell_angle_beta   89.99332799
_cell_angle_gamma   89.99654750
_symmetry_Int_Tables_number   1
_chemical_formula_structural   H6C2I3N
_chemical_formula_sum   'H24 C8 I12 N4'
_cell_volume   741.43389367
_cell_formula_units_Z   4
loop_
 _symmetry_equiv_pos_site_id
 _symmetry_equiv_pos_as_xyz
  1  'x, y, z'
loop_
 _atom_site_type_symbol
 _atom_site_label
 _atom_site_symmetry_multiplicity
 _atom_site_fract_x
 _atom_site_fract_y
 _atom_site_fract_z
 _atom_site_occupancy
  C  C0  1  0.50752249  0.22616749  0.42979752  1
  C  C1  1  0.00922436  0.28260971  0.07906498  1
  C  C2  1  0.49070088  0.78255706  0.57906623  1
  C  C3  1  0.99253140  0.72604157  0.92999292  1
  N  N4  1  0.49955732  0.28562964  0.56729136  1
  N  N5  1  0.00134933  0.21813422  0.94639219  1
  N  N6  1  0.49850742  0.71821447  0.44624837  1
  N  N7  1  0.00066639  0.78576937  0.06722960  1
  H  H8  1  0.64401552  0.19909025  0.41464190  1
  H  H9  1  0.42036187  0.14921700  0.45189474  1
  H  H10  1  0.46362274  0.28840251  0.32539273  1
  H  H11  1  0.53404431  0.22902438  0.67127335  1
  H  H12  1  0.58480510  0.35739536  0.55469843  1
  H  H13  1  0.37298273  0.31644807  0.58305799  1
  H  H14  1  0.14443276  0.31377910  0.08919820  1
  H  H15  1  0.97099317  0.22232673  0.18724140  1
  H  H16  1  0.91776056  0.35722509  0.05491806  1
  H  H17  1  0.09329948  0.15014032  0.95901649  1
  H  H18  1  0.02649391  0.27303897  0.83875312  1
  H  H19  1  0.87755488  0.18091700  0.93795808  1
  H  H20  1  0.35530095  0.81318268  0.58984898  1
  H  H21  1  0.52988051  0.72234933  0.68700674  1
  H  H22  1  0.58148520  0.85752605  0.55459532  1
  H  H23  1  0.47269587  0.77313535  0.33875632  1
  H  H24  1  0.40696414  0.64997844  0.45908743  1
  H  H25  1  0.62246510  0.68135800  0.43732900  1
  H  H26  1  0.85616191  0.69844817  0.91551941  1
  H  H27  1  0.03554758  0.78828289  0.82525863  1
  H  H28  1  0.08030898  0.64939878  0.95191913  1
  H  H29  1  0.91497066  0.85730753  0.05476309  1
  H  H30  1  0.96691244  0.72923015  0.17147546  1
  H  H31  1  0.12712815  0.81699235  0.08242760  1
  C  C32  1  0.49961603  0.97050385  0.93188573  1
  C  C33  1  0.00035283  0.47052810  0.43192236  1
  C  C34  1  0.99513788  0.95249312  0.41923403  1
  C  C35  1  0.50477370  0.45243471  0.91921955  1
  I  I36  1  0.50893358  0.25278147  0.99065117  1
  I  I37  1  0.23535816  0.99365430  0.26034342  1
  I  I38  1  0.76015954  0.99454435  0.25558413  1
  I  I39  1  0.00827913  0.27076352  0.51431149  1
  I  I40  1  0.26235767  0.01040311  0.76852189  1
  I  I41  1  0.73881943  0.00531013  0.76909425  1
  I  I42  1  0.49176876  0.77074507  0.01427765  1
  I  I43  1  0.76112153  0.50531260  0.26922105  1
  I  I44  1  0.23757214  0.51045639  0.26848669  1
  I  I45  1  0.99091913  0.75283137  0.49057050  1
  I  I46  1  0.26470796  0.49355952  0.76016759  1
  I  I47  1  0.73989815  0.49443867  0.75569033  1
