# generated using pymatgen
data_BeGeH12C2(I3N)2
_symmetry_space_group_name_H-M   'P 1'
_cell_length_a   8.55911796
_cell_length_b   12.14144519
_cell_length_c   8.32515663
_cell_angle_alpha   91.08240219
_cell_angle_beta   89.43634575
_cell_angle_gamma   92.48826709
_symmetry_Int_Tables_number   1
_chemical_formula_structural   BeGeH12C2(I3N)2
_chemical_formula_sum   'Be2 Ge2 H24 C4 I12 N4'
_cell_volume   864.14562244
_cell_formula_units_Z   2
loop_
 _symmetry_equiv_pos_site_id
 _symmetry_equiv_pos_as_xyz
  1  'x, y, z'
loop_
 _atom_site_type_symbol
 _atom_site_label
 _atom_site_symmetry_multiplicity
 _atom_site_fract_x
 _atom_site_fract_y
 _atom_site_fract_z
 _atom_site_occupancy
  C  C0  1  0.42629855  0.24818200  0.43462336  1
  C  C1  1  0.91968971  0.25110723  0.07999675  1
  C  C2  1  0.58078839  0.74972505  0.57405118  1
  C  C3  1  0.08297826  0.74427886  0.92818873  1
  N  N4  1  0.56879266  0.24381371  0.53448189  1
  N  N5  1  0.06336969  0.25090029  0.97839567  1
  N  N6  1  0.43995481  0.73952635  0.47071894  1
  N  N7  1  0.93711750  0.75330757  0.02482378  1
  H  H8  1  0.46212541  0.25109694  0.30799707  1
  H  H9  1  0.35301391  0.17361657  0.45513783  1
  H  H10  1  0.36303980  0.32154983  0.46895999  1
  H  H11  1  0.63071885  0.17441760  0.50184262  1
  H  H12  1  0.64311053  0.31248236  0.51696715  1
  H  H13  1  0.54232152  0.23990240  0.65691598  1
  H  H14  1  0.95407930  0.25392064  0.20644010  1
  H  H15  1  0.84948961  0.17556645  0.05387739  1
  H  H16  1  0.85518385  0.32411793  0.05199991  1
  H  H17  1  0.12856974  0.18373687  0.00581888  1
  H  H18  1  0.13276031  0.32169707  0.00044286  1
  H  H19  1  0.03832341  0.24683256  0.85532763  1
  H  H20  1  0.54247073  0.75636606  0.69961249  1
  H  H21  1  0.64847110  0.67604302  0.55570487  1
  H  H22  1  0.64954689  0.82394829  0.54065625  1
  H  H23  1  0.37087331  0.80663358  0.48815443  1
  H  H24  1  0.37212706  0.66958998  0.50114145  1
  H  H25  1  0.46815204  0.73464571  0.34821640  1
  H  H26  1  0.05126854  0.73907986  0.80111578  1
  H  H27  1  0.15896560  0.81745068  0.95142741  1
  H  H28  1  0.14099069  0.66962607  0.96173402  1
  H  H29  1  0.87768921  0.82244519  0.99205509  1
  H  H30  1  0.86277234  0.68445102  0.00264849  1
  H  H31  1  0.95880886  0.75891681  0.14759797  1
  Be  Be32  1  0.36602064  0.06001154  0.94704707  1
  Be  Be33  1  0.97032236  0.55674357  0.34584637  1
  Ge  Ge34  1  0.96198140  0.01944896  0.52743848  1
  Ge  Ge35  1  0.51559195  0.52038233  0.97441431  1
  I  I36  1  0.49857952  0.22989807  0.96004476  1
  I  I37  1  0.22336035  0.00624747  0.17047155  1
  I  I38  1  0.70768782  0.00997545  0.32093003  1
  I  I39  1  0.99375543  0.24576745  0.56027106  1
  I  I40  1  0.32641471  0.98254905  0.69624402  1
  I  I41  1  0.81212581  0.98636696  0.81521701  1
  I  I42  1  0.51613710  0.74384815  0.04780040  1
  I  I43  1  0.71750278  0.48551227  0.32738914  1
  I  I44  1  0.18573397  0.48033884  0.22845860  1
  I  I45  1  0.01375220  0.73376742  0.45055614  1
  I  I46  1  0.31690138  0.50895987  0.71258096  1
  I  I47  1  0.80029412  0.51128630  0.81851439  1
