# generated using pymatgen
data_HgH12C3(Br3N)2
_symmetry_space_group_name_H-M   'P 1'
_cell_length_a   8.22275295
_cell_length_b   10.58999587
_cell_length_c   8.02238397
_cell_angle_alpha   88.11916333
_cell_angle_beta   90.47477305
_cell_angle_gamma   90.91287823
_symmetry_Int_Tables_number   1
_chemical_formula_structural   HgH12C3(Br3N)2
_chemical_formula_sum   'Hg2 H24 C6 Br12 N4'
_cell_volume   698.09448566
_cell_formula_units_Z   2
loop_
 _symmetry_equiv_pos_site_id
 _symmetry_equiv_pos_as_xyz
  1  'x, y, z'
loop_
 _atom_site_type_symbol
 _atom_site_label
 _atom_site_symmetry_multiplicity
 _atom_site_fract_x
 _atom_site_fract_y
 _atom_site_fract_z
 _atom_site_occupancy
  C  C0  1  0.45913349  0.28236660  0.46909684  1
  C  C1  1  0.95481243  0.22539631  0.04385579  1
  C  C2  1  0.56085700  0.73700126  0.55648265  1
  C  C3  1  0.06832611  0.76089196  0.93114711  1
  N  N4  1  0.58146792  0.24052759  0.59553398  1
  N  N5  1  0.07813741  0.24861383  0.91177085  1
  N  N6  1  0.39498986  0.74138876  0.48217945  1
  N  N7  1  0.90678331  0.75212460  0.01211943  1
  H  H8  1  0.51907218  0.29571688  0.34855470  1
  H  H9  1  0.36382611  0.20932194  0.46207860  1
  H  H10  1  0.40630098  0.37059809  0.50837681  1
  H  H11  1  0.63369021  0.15639621  0.56383381  1
  H  H12  1  0.67511737  0.30637593  0.60912733  1
  H  H13  1  0.53065351  0.22486070  0.71310533  1
  H  H14  1  0.01437119  0.23074931  0.16580116  1
  H  H15  1  0.89987286  0.13183646  0.02846638  1
  H  H16  1  0.86135890  0.29743882  0.02973321  1
  H  H17  1  0.17155588  0.18419763  0.92047998  1
  H  H18  1  0.13123308  0.33791302  0.91728932  1
  H  H19  1  0.02865826  0.24430469  0.79172981  1
  H  H20  1  0.55270465  0.75745440  0.68912090  1
  H  H21  1  0.61194874  0.64352429  0.53974571  1
  H  H22  1  0.63791147  0.80876153  0.49400766  1
  H  H23  1  0.34133260  0.82719859  0.50457733  1
  H  H24  1  0.32073316  0.67051282  0.53549142  1
  H  H25  1  0.39883130  0.72938519  0.35370399  1
  H  H26  1  0.05227591  0.74296559  0.79825180  1
  H  H27  1  0.12126545  0.85499996  0.94856205  1
  H  H28  1  0.14796172  0.68962654  0.98784753  1
  H  H29  1  0.83044869  0.82151685  0.96130971  1
  H  H30  1  0.85175732  0.66514403  0.99217642  1
  H  H31  1  0.91619778  0.76472304  0.14047145  1
  C  C32  1  0.48671485  0.04735197  0.09275844  1
  C  C33  1  0.99185700  0.46749832  0.40287209  1
  Hg  Hg34  1  0.01508568  0.99172629  0.58942735  1
  Hg  Hg35  1  0.51256688  0.51792177  0.90708090  1
  Br  Br36  1  0.49124754  0.25539521  0.00762216  1
  Br  Br37  1  0.27115196  0.02092866  0.20274084  1
  Br  Br38  1  0.65629952  0.02991986  0.27376938  1
  Br  Br39  1  0.99120378  0.24799325  0.50001212  1
  Br  Br40  1  0.31315324  1.00081334  0.70982032  1
  Br  Br41  1  0.75895642  0.99048674  0.78680959  1
  Br  Br42  1  0.50125271  0.72186417  0.08319679  1
  Br  Br43  1  0.78171190  0.48708520  0.28521729  1
  Br  Br44  1  0.16594207  0.48370753  0.23201211  1
  Br  Br45  1  0.99076402  0.78447629  0.41753777  1
  Br  Br46  1  0.24688517  0.50595669  0.72420026  1
  Br  Br47  1  0.80164415  0.49311959  0.77919068  1
