# generated using pymatgen
data_H12AuC3(Br3N)2
_symmetry_space_group_name_H-M   'P 1'
_cell_length_a   8.37979593
_cell_length_b   9.80337047
_cell_length_c   8.57360864
_cell_angle_alpha   91.35187099
_cell_angle_beta   87.75235989
_cell_angle_gamma   90.94142889
_symmetry_Int_Tables_number   1
_chemical_formula_structural   H12AuC3(Br3N)2
_chemical_formula_sum   'H24 Au2 C6 Br12 N4'
_cell_volume   703.50152445
_cell_formula_units_Z   2
loop_
 _symmetry_equiv_pos_site_id
 _symmetry_equiv_pos_as_xyz
  1  'x, y, z'
loop_
 _atom_site_type_symbol
 _atom_site_label
 _atom_site_symmetry_multiplicity
 _atom_site_fract_x
 _atom_site_fract_y
 _atom_site_fract_z
 _atom_site_occupancy
  C  C0  1  0.51469877  0.26770233  0.43806390  1
  C  C1  1  0.94911544  0.23049162  0.05717260  1
  C  C2  1  0.56818679  0.74268294  0.59977188  1
  C  C3  1  0.06307055  0.76441563  0.90710998  1
  N  N4  1  0.58989347  0.23754359  0.58709845  1
  N  N5  1  0.02012447  0.23987965  0.89669175  1
  N  N6  1  0.41348182  0.73419052  0.52035914  1
  N  N7  1  0.90209394  0.76201458  0.98525685  1
  H  H8  1  0.60623166  0.26571824  0.34370533  1
  H  H9  1  0.42249461  0.18988705  0.41615195  1
  H  H10  1  0.45925113  0.36796833  0.44843435  1
  H  H11  1  0.66329393  0.15296504  0.57710461  1
  H  H12  1  0.65747582  0.31938345  0.63264631  1
  H  H13  1  0.50408023  0.21547053  0.67316754  1
  H  H14  1  0.04398605  0.23119674  0.14094116  1
  H  H15  1  0.87818033  0.13614454  0.06480590  1
  H  H16  1  0.87160428  0.31832510  0.07762755  1
  H  H17  1  0.07946632  0.15230604  0.85962707  1
  H  H18  1  0.09928970  0.32196193  0.88298342  1
  H  H19  1  0.92918000  0.25430154  0.82026717  1
  H  H20  1  0.54452433  0.77178355  0.72254448  1
  H  H21  1  0.62571447  0.64327275  0.59198479  1
  H  H22  1  0.64415470  0.82071842  0.54386537  1
  H  H23  1  0.34962714  0.82341616  0.54301615  1
  H  H24  1  0.34347189  0.65363344  0.56201374  1
  H  H25  1  0.43079204  0.72234725  0.39926296  1
  H  H26  1  0.04966357  0.80001280  0.78838231  1
  H  H27  1  0.14217079  0.83560446  0.96823991  1
  H  H28  1  0.11268979  0.66198727  0.90410249  1
  H  H29  1  0.83648531  0.84560591  0.94722526  1
  H  H30  1  0.84001394  0.67292280  0.95271391  1
  H  H31  1  0.90439392  0.76763982  0.10530687  1
  C  C32  1  0.38695530  0.03431193  0.02317067  1
  C  C33  1  0.99634557  0.50657044  0.36720403  1
  Au  Au34  1  0.00982639  0.00896870  0.51768208  1
  Au  Au35  1  0.43431479  0.57498449  0.95346978  1
  Br  Br36  1  0.47179696  0.21653070  0.02160207  1
  Br  Br37  1  0.24583433  0.01570964  0.20685781  1
  Br  Br38  1  0.79329259  0.98625409  0.33227021  1
  Br  Br39  1  0.01188082  0.32490901  0.46018835  1
  Br  Br40  1  0.25538982  0.02467860  0.66836277  1
  Br  Br41  1  0.76302976  0.00567396  0.79518318  1
  Br  Br42  1  0.53192741  0.74102412  0.14306124  1
  Br  Br43  1  0.78840126  0.52905412  0.27512215  1
  Br  Br44  1  0.17147940  0.52644668  0.20261688  1
  Br  Br45  1  0.01758499  0.65854522  0.51692656  1
  Br  Br46  1  0.29926636  0.45057450  0.74371256  1
  Br  Br47  1  0.76379679  0.47234804  0.81522111  1
