# generated using pymatgen
data_H12PtC3(Br3N)2
_symmetry_space_group_name_H-M   'P 1'
_cell_length_a   7.86389596
_cell_length_b   9.79297668
_cell_length_c   8.65953116
_cell_angle_alpha   91.15204865
_cell_angle_beta   89.91475431
_cell_angle_gamma   90.03499877
_symmetry_Int_Tables_number   1
_chemical_formula_structural   H12PtC3(Br3N)2
_chemical_formula_sum   'H24 Pt2 C6 Br12 N4'
_cell_volume   666.74306505
_cell_formula_units_Z   2
loop_
 _symmetry_equiv_pos_site_id
 _symmetry_equiv_pos_as_xyz
  1  'x, y, z'
loop_
 _atom_site_type_symbol
 _atom_site_label
 _atom_site_symmetry_multiplicity
 _atom_site_fract_x
 _atom_site_fract_y
 _atom_site_fract_z
 _atom_site_occupancy
  C  C0  1  0.47778578  0.26456030  0.41157048  1
  C  C1  1  0.97726946  0.23588444  0.08844032  1
  C  C2  1  0.54285239  0.73218977  0.58438287  1
  C  C3  1  0.04447575  0.76691829  0.91556039  1
  N  N4  1  0.58440832  0.28316779  0.55149832  1
  N  N5  1  0.08485942  0.21579471  0.94910408  1
  N  N6  1  0.42006678  0.71842490  0.45505531  1
  N  N7  1  0.92023377  0.78299433  0.04372636  1
  H  H8  1  0.56066716  0.25429035  0.31072505  1
  H  H9  1  0.40031598  0.17245141  0.42330912  1
  H  H10  1  0.39635582  0.35431584  0.39945073  1
  H  H11  1  0.65313117  0.19588292  0.57680669  1
  H  H12  1  0.67117899  0.36517852  0.53860797  1
  H  H13  1  0.50925519  0.30916715  0.64656683  1
  H  H14  1  0.05943204  0.24838537  0.18931280  1
  H  H15  1  0.89652170  0.14584722  0.10224667  1
  H  H16  1  0.89915100  0.32726601  0.07461911  1
  H  H17  1  0.17177200  0.13416118  0.96315405  1
  H  H18  1  0.15357605  0.30292956  0.92251142  1
  H  H19  1  0.01032574  0.18855318  0.85419862  1
  H  H20  1  0.47312685  0.75614589  0.69061256  1
  H  H21  1  0.61011879  0.63519729  0.59569394  1
  H  H22  1  0.63175227  0.81436083  0.55791567  1
  H  H23  1  0.36430225  0.81108925  0.42638870  1
  H  H24  1  0.32213719  0.65231365  0.48094985  1
  H  H25  1  0.47987535  0.67869017  0.35639377  1
  H  H26  1  0.97591277  0.74119278  0.80936295  1
  H  H27  1  0.11215273  0.86361745  0.90253682  1
  H  H28  1  0.13279643  0.68514690  0.94439980  1
  H  H29  1  0.82289254  0.84869744  0.01546354  1
  H  H30  1  0.86378486  0.69087860  0.07407933  1
  H  H31  1  0.97892903  0.82423757  0.14204107  1
  C  C32  1  0.36398348  0.01811874  0.98324154  1
  C  C33  1  0.86298289  0.48184183  0.51778104  1
  Pt  Pt34  1  0.00688827  0.99450827  0.50725204  1
  Pt  Pt35  1  0.50689577  0.50564609  0.99290957  1
  Br  Br36  1  0.52449866  0.16402263  0.99319337  1
  Br  Br37  1  0.18672939  0.95665800  0.27905994  1
  Br  Br38  1  0.75252180  0.98517053  0.34031087  1
  Br  Br39  1  0.02368245  0.33603366  0.50805582  1
  Br  Br40  1  0.27071096  0.01741862  0.66039879  1
  Br  Br41  1  0.81977981  0.02796738  0.73417540  1
  Br  Br42  1  0.47525692  0.84398991  0.99660065  1
  Br  Br43  1  0.68724715  0.54447559  0.22018446  1
  Br  Br44  1  0.25289441  0.51476384  0.16089853  1
  Br  Br45  1  0.97448606  0.65604311  0.50356859  1
  Br  Br46  1  0.31941614  0.47086467  0.76692340  1
  Br  Br47  1  0.77063402  0.48262439  0.83905740  1
