# generated using pymatgen
data_HfH12C3(Br3N)2
_symmetry_space_group_name_H-M   'P 1'
_cell_length_a   8.68845115
_cell_length_b   9.43057575
_cell_length_c   8.71553253
_cell_angle_alpha   78.56995640
_cell_angle_beta   89.99667284
_cell_angle_gamma   89.99610463
_symmetry_Int_Tables_number   1
_chemical_formula_structural   HfH12C3(Br3N)2
_chemical_formula_sum   'Hf2 H24 C6 Br12 N4'
_cell_volume   699.96246371
_cell_formula_units_Z   2
loop_
 _symmetry_equiv_pos_site_id
 _symmetry_equiv_pos_as_xyz
  1  'x, y, z'
loop_
 _atom_site_type_symbol
 _atom_site_label
 _atom_site_symmetry_multiplicity
 _atom_site_fract_x
 _atom_site_fract_y
 _atom_site_fract_z
 _atom_site_occupancy
  C  C0  1  0.44889626  0.27376389  0.41405798  1
  C  C1  1  0.00891611  0.25942532  0.11566376  1
  C  C2  1  0.49102887  0.75942497  0.61564965  1
  C  C3  1  0.05122254  0.77388229  0.91425475  1
  N  N4  1  0.57893321  0.22094674  0.51446708  1
  N  N5  1  0.05236949  0.22105612  0.96395911  1
  N  N6  1  0.44761468  0.72103048  0.46393884  1
  N  N7  1  0.92113242  0.72086696  0.01448345  1
  H  H8  1  0.44842139  0.24038698  0.29969621  1
  H  H9  1  0.34082656  0.23593064  0.47368459  1
  H  H10  1  0.44706521  0.39238142  0.39113612  1
  H  H11  1  0.57507716  0.11114213  0.55019392  1
  H  H12  1  0.68109762  0.24454085  0.45689518  1
  H  H13  1  0.58269401  0.33194333  0.70325721  1
  H  H14  1  0.10703178  0.31249532  0.15923369  1
  H  H15  1  0.98110102  0.15775114  0.19724172  1
  H  H16  1  0.90944912  0.33214505  0.09715988  1
  H  H17  1  0.14104633  0.14601145  0.97967224  1
  H  H18  1  0.09006713  0.31011745  0.88204432  1
  H  H19  1  0.96027744  0.17522040  0.91499903  1
  H  H20  1  0.39288720  0.81249427  0.65919331  1
  H  H21  1  0.51884121  0.65776046  0.69723651  1
  H  H22  1  0.59047784  0.83214978  0.59714328  1
  H  H23  1  0.40992534  0.81008046  0.38201520  1
  H  H24  1  0.35895619  0.64598688  0.47964918  1
  H  H25  1  0.53973486  0.67519203  0.41500728  1
  H  H26  1  0.05172934  0.74090315  0.79967815  1
  H  H27  1  0.05313300  0.89250171  0.89175979  1
  H  H28  1  0.15925557  0.73582702  0.97381566  1
  H  H29  1  0.81900700  0.74456575  0.95688684  1
  H  H30  1  0.92499979  0.61105061  0.04996790  1
  H  H31  1  0.91720714  0.83188435  0.20331138  1
  C  C32  1  0.92778788  0.92080545  0.27119178  1
  C  C33  1  0.57211115  0.42082753  0.77119159  1
  Hf  Hf34  1  0.51469824  0.99904117  0.00149387  1
  Hf  Hf35  1  0.98526606  0.49906390  0.50155203  1
  Br  Br36  1  0.53208102  0.30493481  0.99062785  1
  Br  Br37  1  0.30154575  0.00555018  0.20950968  1
  Br  Br38  1  0.69355465  0.97874768  0.27140961  1
  Br  Br39  1  0.99587082  0.23036188  0.52508268  1
  Br  Br40  1  0.32572380  0.05830505  0.77884797  1
  Br  Br41  1  0.75858190  0.03678562  0.83819088  1
  Br  Br42  1  0.50417107  0.73034129  0.02501277  1
  Br  Br43  1  0.74144912  0.53681068  0.33818019  1
  Br  Br44  1  0.17430464  0.55827682  0.27894287  1
  Br  Br45  1  0.96780389  0.80495880  0.49065336  1
  Br  Br46  1  0.19831432  0.50567710  0.70961956  1
  Br  Br47  1  0.80633661  0.47873090  0.77143668  1
