# generated using pymatgen
data_BaH12C3(Br3N)2
_symmetry_space_group_name_H-M   'P 1'
_cell_length_a   8.08578540
_cell_length_b   11.65242378
_cell_length_c   7.96343287
_cell_angle_alpha   89.29528001
_cell_angle_beta   89.98897215
_cell_angle_gamma   89.93269324
_symmetry_Int_Tables_number   1
_chemical_formula_structural   BaH12C3(Br3N)2
_chemical_formula_sum   'Ba2 H24 C6 Br12 N4'
_cell_volume   750.24938316
_cell_formula_units_Z   2
loop_
 _symmetry_equiv_pos_site_id
 _symmetry_equiv_pos_as_xyz
  1  'x, y, z'
loop_
 _atom_site_type_symbol
 _atom_site_label
 _atom_site_symmetry_multiplicity
 _atom_site_fract_x
 _atom_site_fract_y
 _atom_site_fract_z
 _atom_site_occupancy
  C  C0  1  0.40941597  0.25785702  0.43308436  1
  C  C1  1  0.91064282  0.24210414  0.06807156  1
  C  C2  1  0.60036142  0.75329617  0.59766003  1
  C  C3  1  0.09875984  0.74724232  0.90197514  1
  N  N4  1  0.54895464  0.25253805  0.55433950  1
  N  N5  1  0.04906240  0.24734719  0.94546496  1
  N  N6  1  0.44407043  0.75160272  0.50103459  1
  N  N7  1  0.94243009  0.74815521  0.99865173  1
  H  H8  1  0.45826264  0.25969021  0.30462176  1
  H  H9  1  0.33486226  0.18049411  0.45157092  1
  H  H10  1  0.33512269  0.33412206  0.45918994  1
  H  H11  1  0.61825321  0.17904536  0.53800507  1
  H  H12  1  0.63032482  0.32037220  0.53945654  1
  H  H13  1  0.50882076  0.25148018  0.68012366  1
  H  H14  1  0.96061281  0.24091614  0.19606114  1
  H  H15  1  0.83678436  0.16555678  0.04324034  1
  H  H16  1  0.83520766  0.31920312  0.04972410  1
  H  H17  1  0.13166675  0.18011005  0.96074210  1
  H  H18  1  0.11723070  0.32141122  0.95995707  1
  H  H19  1  0.00791767  0.24725631  0.82005934  1
  H  H20  1  0.56973000  0.76069055  0.73101147  1
  H  H21  1  0.67088977  0.67493176  0.57482869  1
  H  H22  1  0.66998850  0.82975045  0.56035869  1
  H  H23  1  0.37629953  0.82529742  0.53289747  1
  H  H24  1  0.37632544  0.67748776  0.53417536  1
  H  H25  1  0.46480514  0.75266267  0.37226956  1
  H  H26  1  0.06815397  0.74079019  0.76851432  1
  H  H27  1  0.16871534  0.82556498  0.92586922  1
  H  H28  1  0.16902522  0.67068177  0.93803060  1
  H  H29  1  0.87416537  0.82223570  0.96599691  1
  H  H30  1  0.87532725  0.67436882  0.96635955  1
  H  H31  1  0.96319634  0.74676781  0.12739995  1
  C  C32  1  0.48852649  0.96974040  0.08856784  1
  C  C33  1  0.98994522  0.53066946  0.41147630  1
  Ba  Ba34  1  0.00066102  0.99455864  0.50818706  1
  Ba  Ba35  1  0.50146839  0.50505499  0.99190945  1
  Br  Br36  1  0.46372644  0.24556151  0.96218358  1
  Br  Br37  1  0.24080006  0.99329213  0.16487409  1
  Br  Br38  1  0.63341403  0.01351934  0.29493470  1
  Br  Br39  1  0.96308743  0.25368648  0.53807926  1
  Br  Br40  1  0.33271630  0.98555892  0.68369242  1
  Br  Br41  1  0.80762781  0.98502395  0.83743247  1
  Br  Br42  1  0.51611243  0.78343330  0.08621487  1
  Br  Br43  1  0.74213502  0.50719095  0.33501889  1
  Br  Br44  1  0.13429864  0.48589128  0.20514478  1
  Br  Br45  1  0.01813758  0.71662326  0.41282789  1
  Br  Br46  1  0.30837375  0.51529211  0.66291947  1
  Br  Br47  1  0.83360732  0.51395112  0.81608787  1
