# generated using pymatgen
data_SnH12C3(Br3N)2
_symmetry_space_group_name_H-M   'P 1'
_cell_length_a   8.17479764
_cell_length_b   11.20016101
_cell_length_c   7.84260113
_cell_angle_alpha   89.44478557
_cell_angle_beta   89.81648564
_cell_angle_gamma   89.37807912
_symmetry_Int_Tables_number   1
_chemical_formula_structural   SnH12C3(Br3N)2
_chemical_formula_sum   'Sn2 H24 C6 Br12 N4'
_cell_volume   717.98164864
_cell_formula_units_Z   2
loop_
 _symmetry_equiv_pos_site_id
 _symmetry_equiv_pos_as_xyz
  1  'x, y, z'
loop_
 _atom_site_type_symbol
 _atom_site_label
 _atom_site_symmetry_multiplicity
 _atom_site_fract_x
 _atom_site_fract_y
 _atom_site_fract_z
 _atom_site_occupancy
  C  C0  1  0.42736602  0.25006952  0.43789679  1
  C  C1  1  0.93022467  0.24851820  0.06937099  1
  C  C2  1  0.57694827  0.75311149  0.56920964  1
  C  C3  1  0.06509476  0.74349646  0.92500380  1
  N  N4  1  0.57893419  0.24847781  0.54202318  1
  N  N5  1  0.07779328  0.25133538  0.95851734  1
  N  N6  1  0.42328638  0.75217964  0.46842933  1
  N  N7  1  0.91197881  0.74730926  0.02685574  1
  H  H8  1  0.46133664  0.24914987  0.30271564  1
  H  H9  1  0.35745900  0.17000256  0.46882564  1
  H  H10  1  0.35492606  0.32973357  0.46824442  1
  H  H11  1  0.64949730  0.17382333  0.51089896  1
  H  H12  1  0.65026651  0.32263742  0.51902317  1
  H  H13  1  0.55328057  0.24568349  0.67278651  1
  H  H14  1  0.96875993  0.24816456  0.20284218  1
  H  H15  1  0.86074310  0.16832587  0.04106610  1
  H  H16  1  0.85651025  0.32825487  0.04185795  1
  H  H17  1  0.15482705  0.17939156  0.98359421  1
  H  H18  1  0.14461770  0.32762137  0.97861721  1
  H  H19  1  0.04739619  0.24978095  0.82871548  1
  H  H20  1  0.54450967  0.75312954  0.70450086  1
  H  H21  1  0.64836996  0.67303936  0.53918728  1
  H  H22  1  0.64454136  0.83378661  0.53643728  1
  H  H23  1  0.35001550  0.82478959  0.49804386  1
  H  H24  1  0.35696389  0.67582511  0.49789523  1
  H  H25  1  0.44544604  0.75557724  0.33753467  1
  H  H26  1  0.03285939  0.73971448  0.78992526  1
  H  H27  1  0.13498295  0.82379861  0.95080948  1
  H  H28  1  0.13501629  0.66353960  0.96078283  1
  H  H29  1  0.84324002  0.82267398  0.99389207  1
  H  H30  1  0.84313760  0.67218708  0.00053946  1
  H  H31  1  0.93569914  0.74900222  0.15726391  1
  C  C32  1  0.43882486  0.97062425  0.00519059  1
  C  C33  1  0.98902959  0.52962191  0.41920151  1
  Sn  Sn34  1  0.98752683  0.00465959  0.52454601  1
  Sn  Sn35  1  0.50459325  0.49880107  0.97521408  1
  Br  Br36  1  0.49861787  0.25827055  0.96226696  1
  Br  Br37  1  0.24631397  0.99933330  0.17551816  1
  Br  Br38  1  0.72485593  0.01452818  0.31847347  1
  Br  Br39  1  0.99836680  0.24499106  0.54676743  1
  Br  Br40  1  0.32889287  0.98338269  0.76336546  1
  Br  Br41  1  0.80470359  0.99259050  0.80595138  1
  Br  Br42  1  0.48811010  0.78448736  0.04050958  1
  Br  Br43  1  0.76070680  0.50692363  0.30542150  1
  Br  Br44  1  0.16373298  0.49501112  0.23086969  1
  Br  Br45  1  0.00604912  0.71900946  0.44196973  1
  Br  Br46  1  0.30758479  0.51259101  0.70152424  1
  Br  Br47  1  0.78608589  0.51112202  0.80020031  1
