# generated using pymatgen
data_CdH12C3(Br3N)2
_symmetry_space_group_name_H-M   'P 1'
_cell_length_a   8.13132388
_cell_length_b   10.60792993
_cell_length_c   8.09876442
_cell_angle_alpha   89.13092003
_cell_angle_beta   90.43704241
_cell_angle_gamma   90.97674931
_symmetry_Int_Tables_number   1
_chemical_formula_structural   CdH12C3(Br3N)2
_chemical_formula_sum   'Cd2 H24 C6 Br12 N4'
_cell_volume   698.37035830
_cell_formula_units_Z   2
loop_
 _symmetry_equiv_pos_site_id
 _symmetry_equiv_pos_as_xyz
  1  'x, y, z'
loop_
 _atom_site_type_symbol
 _atom_site_label
 _atom_site_symmetry_multiplicity
 _atom_site_fract_x
 _atom_site_fract_y
 _atom_site_fract_z
 _atom_site_occupancy
  C  C0  1  0.45172376  0.27213262  0.46044609  1
  C  C1  1  0.95210447  0.23346082  0.04797082  1
  C  C2  1  0.56558664  0.74297180  0.57133180  1
  C  C3  1  0.07370486  0.75425653  0.92127884  1
  N  N4  1  0.57425508  0.24493091  0.59278769  1
  N  N5  1  0.06974097  0.25100580  0.90978587  1
  N  N6  1  0.40354360  0.74085950  0.48566641  1
  N  N7  1  0.91432427  0.75239655  0.00931922  1
  H  H8  1  0.51543469  0.28415938  0.34270455  1
  H  H9  1  0.36425153  0.19274697  0.45482079  1
  H  H10  1  0.38664487  0.35777874  0.49186620  1
  H  H11  1  0.64003662  0.16479706  0.56827161  1
  H  H12  1  0.65954159  0.31799521  0.60737134  1
  H  H13  1  0.51906503  0.22929936  0.70705090  1
  H  H14  1  0.01919851  0.23841936  0.16525329  1
  H  H15  1  0.89056414  0.14162221  0.03585525  1
  H  H16  1  0.86104677  0.30805486  0.03906847  1
  H  H17  1  0.16264712  0.18540942  0.91448740  1
  H  H18  1  0.12661329  0.33929328  0.90979748  1
  H  H19  1  0.01285273  0.24415139  0.79425232  1
  H  H20  1  0.54578459  0.76191127  0.70225867  1
  H  H21  1  0.62505151  0.65216529  0.55628495  1
  H  H22  1  0.64256956  0.81823015  0.51782323  1
  H  H23  1  0.34278291  0.82460171  0.50460610  1
  H  H24  1  0.32972979  0.66787220  0.53363708  1
  H  H25  1  0.41648324  0.72782039  0.35894815  1
  H  H26  1  0.04936336  0.73846736  0.78985674  1
  H  H27  1  0.13592968  0.84528346  0.93917707  1
  H  H28  1  0.15036907  0.67859692  0.97007279  1
  H  H29  1  0.84017481  0.82448784  0.96296070  1
  H  H30  1  0.85212937  0.66765709  0.99021577  1
  H  H31  1  0.92991585  0.76525187  0.13607206  1
  C  C32  1  0.48304135  0.03480859  0.09683835  1
  C  C33  1  0.98805150  0.47927125  0.40181822  1
  Cd  Cd34  1  0.01890429  0.99558159  0.58858004  1
  Cd  Cd35  1  0.51706165  0.50784155  0.91467623  1
  Br  Br36  1  0.48409975  0.26274554  0.00717635  1
  Br  Br37  1  0.26612603  0.01283396  0.20095474  1
  Br  Br38  1  0.65223640  0.02115517  0.27269040  1
  Br  Br39  1  0.98489619  0.23796617  0.49840880  1
  Br  Br40  1  0.31428463  1.00035949  0.71188436  1
  Br  Br41  1  0.77176449  0.99320797  0.79322502  1
  Br  Br42  1  0.50255940  0.71260701  0.08525439  1
  Br  Br43  1  0.77448992  0.49228387  0.29174031  1
  Br  Br44  1  0.16028501  0.49225814  0.23280894  1
  Br  Br45  1  0.99182385  0.79155805  0.41508261  1
  Br  Br46  1  0.26241829  0.50281346  0.71769004  1
  Br  Br47  1  0.80481672  0.49469917  0.78016817  1
