# generated using pymatgen
data_AgH12C3(Br3N)2
_symmetry_space_group_name_H-M   'P 1'
_cell_length_a   8.38588860
_cell_length_b   9.78109541
_cell_length_c   8.61973744
_cell_angle_alpha   91.72567091
_cell_angle_beta   86.26934806
_cell_angle_gamma   90.47084160
_symmetry_Int_Tables_number   1
_chemical_formula_structural   AgH12C3(Br3N)2
_chemical_formula_sum   'Ag2 H24 C6 Br12 N4'
_cell_volume   705.18618284
_cell_formula_units_Z   2
loop_
 _symmetry_equiv_pos_site_id
 _symmetry_equiv_pos_as_xyz
  1  'x, y, z'
loop_
 _atom_site_type_symbol
 _atom_site_label
 _atom_site_symmetry_multiplicity
 _atom_site_fract_x
 _atom_site_fract_y
 _atom_site_fract_z
 _atom_site_occupancy
  C  C0  1  0.49785251  0.27677536  0.43566226  1
  C  C1  1  0.96313155  0.23478432  0.05180889  1
  C  C2  1  0.57220069  0.74670970  0.59947627  1
  C  C3  1  0.06120981  0.76509924  0.92314760  1
  N  N4  1  0.58487727  0.22839918  0.56817153  1
  N  N5  1  0.03450771  0.23848822  0.89039575  1
  N  N6  1  0.41702142  0.72819031  0.52738972  1
  N  N7  1  0.89478365  0.77073466  0.99282791  1
  H  H8  1  0.58413675  0.29713630  0.33839809  1
  H  H9  1  0.41418300  0.19621621  0.40249025  1
  H  H10  1  0.43087852  0.36874856  0.47305725  1
  H  H11  1  0.66466968  0.15162961  0.52961778  1
  H  H12  1  0.64802619  0.30587260  0.62427686  1
  H  H13  1  0.50648982  0.18588758  0.65150390  1
  H  H14  1  0.05770396  0.24127959  0.13307839  1
  H  H15  1  0.89554609  0.13948898  0.06661312  1
  H  H16  1  0.88212823  0.32175016  0.07003206  1
  H  H17  1  0.10570384  0.15454874  0.85864943  1
  H  H18  1  0.10411993  0.32581814  0.86809290  1
  H  H19  1  0.94310178  0.23724109  0.81498723  1
  H  H20  1  0.54894529  0.78183971  0.72067944  1
  H  H21  1  0.63577743  0.64929977  0.59484344  1
  H  H22  1  0.64275704  0.82402967  0.53570584  1
  H  H23  1  0.34836980  0.81622445  0.54916579  1
  H  H24  1  0.35340880  0.64625659  0.57612764  1
  H  H25  1  0.43361021  0.71289849  0.40659491  1
  H  H26  1  0.05767719  0.78274638  0.79872040  1
  H  H27  1  0.13359676  0.84545000  0.97525794  1
  H  H28  1  0.11234646  0.66469846  0.93998174  1
  H  H29  1  0.83437114  0.85266189  0.94574988  1
  H  H30  1  0.83279382  0.68155213  0.96594479  1
  H  H31  1  0.88706618  0.78591945  0.11235558  1
  C  C32  1  0.37899781  0.02579741  0.03210582  1
  C  C33  1  0.99476239  0.50875096  0.36693088  1
  Ag  Ag34  1  0.98307872  -0.00040688  0.54063313  1
  Ag  Ag35  1  0.48651382  0.54562980  0.94481625  1
  Br  Br36  1  0.46280324  0.20866512  0.01725132  1
  Br  Br37  1  0.23841780  0.01488108  0.21758133  1
  Br  Br38  1  0.79055232  0.99366380  0.32141590  1
  Br  Br39  1  -0.00082699  0.32725634  0.45862108  1
  Br  Br40  1  0.25812510  0.01985676  0.65858679  1
  Br  Br41  1  0.76827342  0.01269697  0.79100841  1
  Br  Br42  1  0.51950998  0.73233920  0.14936041  1
  Br  Br43  1  0.79090238  0.54021936  0.27250709  1
  Br  Br44  1  0.17733260  0.52209791  0.21198751  1
  Br  Br45  1  0.01478339  0.66028451  0.51923864  1
  Br  Br46  1  0.28699948  0.46508014  0.74731188  1
  Br  Br47  1  0.76680577  0.46489028  0.81013558  1
