# generated using pymatgen
data_H12PdC3(Br3N)2
_symmetry_space_group_name_H-M   'P 1'
_cell_length_a   7.99650396
_cell_length_b   9.93596377
_cell_length_c   8.28931345
_cell_angle_alpha   90.99429424
_cell_angle_beta   88.79826274
_cell_angle_gamma   90.12660678
_symmetry_Int_Tables_number   1
_chemical_formula_structural   H12PdC3(Br3N)2
_chemical_formula_sum   'H24 Pd2 C6 Br12 N4'
_cell_volume   658.36547124
_cell_formula_units_Z   2
loop_
 _symmetry_equiv_pos_site_id
 _symmetry_equiv_pos_as_xyz
  1  'x, y, z'
loop_
 _atom_site_type_symbol
 _atom_site_label
 _atom_site_symmetry_multiplicity
 _atom_site_fract_x
 _atom_site_fract_y
 _atom_site_fract_z
 _atom_site_occupancy
  C  C0  1  0.48168183  0.27109142  0.43921776  1
  C  C1  1  0.96132408  0.23452706  0.06142731  1
  C  C2  1  0.55056048  0.73707700  0.58686218  1
  C  C3  1  0.06274497  0.75825731  0.91863285  1
  N  N4  1  0.56573582  0.24322574  0.59289731  1
  N  N5  1  0.05052654  0.25421693  0.90498944  1
  N  N6  1  0.42294223  0.74204711  0.45950676  1
  N  N7  1  0.91287109  0.76560954  0.02695911  1
  H  H8  1  0.57588759  0.27326730  0.34211480  1
  H  H9  1  0.39053148  0.19100560  0.41676798  1
  H  H10  1  0.41894181  0.36853422  0.45014840  1
  H  H11  1  0.63923891  0.15706855  0.58340433  1
  H  H12  1  0.64063477  0.32287085  0.63184652  1
  H  H13  1  0.47815842  0.22724301  0.68413023  1
  H  H14  1  0.05325550  0.22895423  0.15648465  1
  H  H15  1  0.88974811  0.14076168  0.05496594  1
  H  H16  1  0.87726815  0.31993546  0.08366623  1
  H  H17  1  0.12117436  0.17102408  0.86784955  1
  H  H18  1  0.13017356  0.33750159  0.90695813  1
  H  H19  1  0.96587863  0.27128239  0.81508351  1
  H  H20  1  0.48755477  0.75015397  0.70429642  1
  H  H21  1  0.61265017  0.63928656  0.58001386  1
  H  H22  1  0.64020879  0.81852043  0.56661443  1
  H  H23  1  0.36121614  0.83394002  0.46201436  1
  H  H24  1  0.33315378  0.66808175  0.47516352  1
  H  H25  1  0.47667261  0.72657587  0.34577924  1
  H  H26  1  0.02105606  0.74270515  0.79502561  1
  H  H27  1  0.13126726  0.85316164  0.92785960  1
  H  H28  1  0.14035399  0.67413323  0.95488354  1
  H  H29  1  0.83421557  0.84167890  0.99120130  1
  H  H30  1  0.84534188  0.67608848  0.02454290  1
  H  H31  1  0.94398596  0.78622504  0.14543459  1
  C  C32  1  0.47354679  0.00287613  0.16867824  1
  C  C33  1  0.00379620  0.49346811  0.34385974  1
  Pd  Pd34  1  0.00847359  0.00160085  0.50817729  1
  Pd  Pd35  1  0.50939024  0.49534757  0.99803263  1
  Br  Br36  1  0.47276680  0.16368333  0.03359011  1
  Br  Br37  1  0.17192115  0.96891863  0.25359889  1
  Br  Br38  1  0.75283651  0.99563840  0.34384778  1
  Br  Br39  1  0.00204757  0.33148118  0.47507300  1
  Br  Br40  1  0.26330641  0.01409511  0.67696552  1
  Br  Br41  1  0.82063269  0.01119875  0.74963922  1
  Br  Br42  1  0.48919130  0.83923551  0.02990906  1
  Br  Br43  1  0.68092958  0.53642379  0.23868254  1
  Br  Br44  1  0.24527848  0.49773028  0.16538382  1
  Br  Br45  1  0.00173749  0.65736449  0.47972296  1
  Br  Br46  1  0.32341047  0.47781958  0.76225209  1
  Br  Br47  1  0.76380314  0.48714446  0.81614130  1
