# generated using pymatgen
data_ZrH12C3(Br3N)2
_symmetry_space_group_name_H-M   'P 1'
_cell_length_a   8.62480287
_cell_length_b   9.51211034
_cell_length_c   8.70393480
_cell_angle_alpha   79.47554618
_cell_angle_beta   90.04165448
_cell_angle_gamma   90.03965399
_symmetry_Int_Tables_number   1
_chemical_formula_structural   ZrH12C3(Br3N)2
_chemical_formula_sum   'Zr2 H24 C6 Br12 N4'
_cell_volume   702.05838204
_cell_formula_units_Z   2
loop_
 _symmetry_equiv_pos_site_id
 _symmetry_equiv_pos_as_xyz
  1  'x, y, z'
loop_
 _atom_site_type_symbol
 _atom_site_label
 _atom_site_symmetry_multiplicity
 _atom_site_fract_x
 _atom_site_fract_y
 _atom_site_fract_z
 _atom_site_occupancy
  C  C0  1  0.44912617  0.27133043  0.41763280  1
  C  C1  1  0.00576014  0.26007645  0.11232613  1
  C  C2  1  0.49471724  0.75986130  0.61235785  1
  C  C3  1  0.05003760  0.77051371  0.91709952  1
  N  N4  1  0.57846020  0.22020608  0.52009652  1
  N  N5  1  0.05381364  0.22466944  0.95985443  1
  N  N6  1  0.44638968  0.72485987  0.45970089  1
  N  N7  1  0.92106900  0.72089208  0.02059388  1
  H  H8  1  0.45295452  0.23981634  0.30182475  1
  H  H9  1  0.33949277  0.23157147  0.47334289  1
  H  H10  1  0.44495014  0.38845376  0.39836802  1
  H  H11  1  0.57466820  0.11178381  0.55486184  1
  H  H12  1  0.68245936  0.24329704  0.46486362  1
  H  H13  1  0.57968722  0.33450552  0.70433540  1
  H  H14  1  0.10322693  0.31155998  0.16053492  1
  H  H15  1  0.97626030  0.15916492  0.19067269  1
  H  H16  1  0.90580617  0.33213946  0.09363329  1
  H  H17  1  0.14315304  0.15055924  0.97511945  1
  H  H18  1  0.09329736  0.31358119  0.88154018  1
  H  H19  1  0.96262029  0.18003955  0.90678973  1
  H  H20  1  0.39744474  0.81130722  0.66068988  1
  H  H21  1  0.52407233  0.65878591  0.69046547  1
  H  H22  1  0.59485013  0.83182220  0.59389163  1
  H  H23  1  0.40703765  0.81394087  0.38156159  1
  H  H24  1  0.35687961  0.65083243  0.47471002  1
  H  H25  1  0.53740738  0.68029093  0.40653834  1
  H  H26  1  0.04571814  0.73675556  0.80245245  1
  H  H27  1  0.05422674  0.88768474  0.89531756  1
  H  H28  1  0.15986223  0.73169490  0.97316862  1
  H  H29  1  0.81684227  0.74368663  0.96552552  1
  H  H30  1  0.92442896  0.61267593  0.05683787  1
  H  H31  1  0.92128283  0.83524081  0.20439449  1
  C  C32  1  0.92921214  0.92121064  0.27686625  1
  C  C33  1  0.57151274  0.42077086  0.77637082  1
  Zr  Zr34  1  0.51434079  0.99843243  0.99949518  1
  Zr  Zr35  1  0.98582464  0.49836975  0.49955287  1
  Br  Br36  1  0.53346314  0.30393441  0.99263715  1
  Br  Br37  1  0.29775510  0.00714320  0.20970843  1
  Br  Br38  1  0.69475093  0.97878080  0.27374969  1
  Br  Br39  1  0.99576493  0.22960262  0.52052504  1
  Br  Br40  1  0.32054623  0.05512287  0.77540381  1
  Br  Br41  1  0.76386253  0.03443058  0.83620390  1
  Br  Br42  1  0.50387516  0.72961854  0.02063311  1
  Br  Br43  1  0.73591701  0.53428988  0.33648472  1
  Br  Br44  1  0.17921409  0.55536371  0.27531591  1
  Br  Br45  1  0.96708837  0.80392504  0.49292788  1
  Br  Br46  1  0.20300712  0.50663485  0.70953001  1
  Br  Br47  1  0.80588584  0.47884828  0.77378957  1
