# generated using pymatgen
data_BeZnH12C2(I3N)2
_symmetry_space_group_name_H-M   'P 1'
_cell_length_a   7.28692801
_cell_length_b   13.21570760
_cell_length_c   8.49762708
_cell_angle_alpha   90.65100273
_cell_angle_beta   89.82705069
_cell_angle_gamma   89.91839186
_symmetry_Int_Tables_number   1
_chemical_formula_structural   BeZnH12C2(I3N)2
_chemical_formula_sum   'Be2 Zn2 H24 C4 I12 N4'
_cell_volume   818.28029570
_cell_formula_units_Z   2
loop_
 _symmetry_equiv_pos_site_id
 _symmetry_equiv_pos_as_xyz
  1  'x, y, z'
loop_
 _atom_site_type_symbol
 _atom_site_label
 _atom_site_symmetry_multiplicity
 _atom_site_fract_x
 _atom_site_fract_y
 _atom_site_fract_z
 _atom_site_occupancy
  C  C0  1  0.40108728  0.25364596  0.34750709  1
  C  C1  1  0.88539576  0.24734645  0.15319897  1
  C  C2  1  0.61581717  0.74697158  0.65322070  1
  C  C3  1  0.10232475  0.75401873  0.85006247  1
  N  N4  1  0.54898870  0.23484327  0.46272195  1
  N  N5  1  0.03025668  0.23958194  0.03125656  1
  N  N6  1  0.46418082  0.73910196  0.53828943  1
  N  N7  1  0.94916750  0.73543389  0.96092299  1
  H  H8  1  0.46108717  0.25774718  0.22914654  1
  H  H9  1  0.30397054  0.19061140  0.35231508  1
  H  H10  1  0.33295866  0.32510002  0.37857362  1
  H  H11  1  0.61427061  0.16508465  0.44144405  1
  H  H12  1  0.64925078  0.29045587  0.46038913  1
  H  H13  1  0.50083412  0.23414102  0.57914434  1
  H  H14  1  0.95041340  0.24981918  0.26958159  1
  H  H15  1  0.79733512  0.18047292  0.14359993  1
  H  H16  1  0.80660029  0.31672527  0.13378726  1
  H  H17  1  0.10618754  0.17247376  0.04277150  1
  H  H18  1  0.12135495  0.29967175  0.03871004  1
  H  H19  1  0.97835735  0.24064891  0.91652040  1
  H  H20  1  0.55757089  0.74837275  0.77255964  1
  H  H21  1  0.70489721  0.68068930  0.63817624  1
  H  H22  1  0.69185647  0.81681599  0.63088471  1
  H  H23  1  0.37346770  0.79935448  0.55001696  1
  H  H24  1  0.38940506  0.67183712  0.55280113  1
  H  H25  1  0.50990909  0.74028379  0.42129514  1
  H  H26  1  0.04799167  0.75725749  0.72989799  1
  H  H27  1  0.16810399  0.82577670  0.88231680  1
  H  H28  1  0.19996205  0.69126144  0.85900669  1
  H  H29  1  0.84925414  0.79132362  0.95569703  1
  H  H30  1  0.88493837  0.66569911  0.93804543  1
  H  H31  1  0.99218082  0.73471643  0.07861233  1
  Be  Be32  1  0.43805109  0.06143976  0.87914415  1
  Be  Be33  1  0.06280631  0.56056681  0.37930828  1
  Zn  Zn34  1  0.93901305  0.05842098  0.62585085  1
  Zn  Zn35  1  0.56400720  0.55804760  0.12714828  1
  I  I36  1  0.47301235  0.23989289  0.87010290  1
  I  I37  1  0.27006763  0.01021392  0.10334805  1
  I  I38  1  0.76701151  0.99701793  0.37923036  1
  I  I39  1  0.98228375  0.25251606  0.62403786  1
  I  I40  1  0.29137157  0.99220120  0.63462226  1
  I  I41  1  0.75976004  0.99217300  0.88388775  1
  I  I42  1  0.51886793  0.75210867  0.12876379  1
  I  I43  1  0.74131966  0.49145138  0.38427932  1
  I  I44  1  0.21207007  0.49063644  0.13547996  1
  I  I45  1  0.02781163  0.73893742  0.36897910  1
  I  I46  1  0.22784920  0.50975156  0.60501569  1
  I  I47  1  0.73534409  0.49741872  0.87862425  1
