# generated using pymatgen
data_SrH12C3(Br3N)2
_symmetry_space_group_name_H-M   'P 1'
_cell_length_a   7.66723067
_cell_length_b   11.35192468
_cell_length_c   8.16296870
_cell_angle_alpha   96.48926483
_cell_angle_beta   89.99865461
_cell_angle_gamma   90.00075607
_symmetry_Int_Tables_number   1
_chemical_formula_structural   SrH12C3(Br3N)2
_chemical_formula_sum   'Sr2 H24 C6 Br12 N4'
_cell_volume   705.93498513
_cell_formula_units_Z   2
loop_
 _symmetry_equiv_pos_site_id
 _symmetry_equiv_pos_as_xyz
  1  'x, y, z'
loop_
 _atom_site_type_symbol
 _atom_site_label
 _atom_site_symmetry_multiplicity
 _atom_site_fract_x
 _atom_site_fract_y
 _atom_site_fract_z
 _atom_site_occupancy
  C  C0  1  0.46529318  0.25962870  0.41699234  1
  C  C1  1  0.02066291  0.24061303  0.06520314  1
  C  C2  1  0.47919922  0.74072331  0.56504177  1
  C  C3  1  0.03480032  0.75977774  0.91712591  1
  N  N4  1  0.52057671  0.24604574  0.58857852  1
  N  N5  1  0.08635704  0.25489676  0.89759939  1
  N  N6  1  0.41369495  0.75482320  0.39732017  1
  N  N7  1  0.97934929  0.74585193  0.08856628  1
  H  H8  1  0.58221448  0.27061474  0.34365858  1
  H  H9  1  0.39114462  0.18112456  0.36719237  1
  H  H10  1  0.38325569  0.33871873  0.41809239  1
  H  H11  1  0.65630531  0.23822729  0.59379892  1
  H  H12  1  0.48134748  0.31985149  0.66758233  1
  H  H13  1  0.46388711  0.17132924  0.63155316  1
  H  H14  1  0.13071518  0.24329746  0.15059506  1
  H  H15  1  0.95562277  0.15462302  0.06235672  1
  H  H16  1  0.93018058  0.31276360  0.10458478  1
  H  H17  1  0.16544158  0.18327556  0.85105364  1
  H  H18  1  0.15768768  0.33272291  0.89439896  1
  H  H19  1  0.98755600  0.25776458  0.81113294  1
  H  H20  1  0.36904468  0.74353055  0.65034572  1
  H  H21  1  0.54417949  0.65473557  0.56245044  1
  H  H22  1  0.56968428  0.81288910  0.60434572  1
  H  H23  1  0.34237427  0.83262860  0.39388127  1
  H  H24  1  0.33465754  0.68316037  0.35084044  1
  H  H25  1  0.51259667  0.75761004  0.31092436  1
  H  H26  1  0.91797870  0.77123107  0.84387878  1
  H  H27  1  0.11723645  0.83870998  0.91865746  1
  H  H28  1  0.10858519  0.68121270  0.86694456  1
  H  H29  1  0.01816737  0.81963735  0.16778741  1
  H  H30  1  0.84364609  0.73777165  0.09357505  1
  H  H31  1  0.03626674  0.67117473  0.13143175  1
  C  C32  1  0.91231940  0.96875185  0.52438664  1
  C  C33  1  0.58776441  0.46872629  0.02436024  1
  Sr  Sr34  1  0.50599721  0.99948483  0.01601267  1
  Sr  Sr35  1  0.99397758  0.49952502  0.51602934  1
  Br  Br36  1  0.53593702  0.27993673  0.00379799  1
  Br  Br37  1  0.20694603  0.98547826  0.23448689  1
  Br  Br38  1  0.69390373  0.97810747  0.37466857  1
  Br  Br39  1  0.94455167  0.24753900  0.49832713  1
  Br  Br40  1  0.30252230  0.02181797  0.71914360  1
  Br  Br41  1  0.81701102  0.01349970  0.76560871  1
  Br  Br42  1  0.55548547  0.74749346  0.99809871  1
  Br  Br43  1  0.68294350  0.51345292  0.26565535  1
  Br  Br44  1  0.19749203  0.52166006  0.21909676  1
  Br  Br45  1  0.96412328  0.77993945  0.50389868  1
  Br  Br46  1  0.29305672  0.48558036  0.73445237  1
  Br  Br47  1  0.80628278  0.47811961  0.87478263  1
