# generated using pymatgen
data_GeH12C3(Br3N)2
_symmetry_space_group_name_H-M   'P 1'
_cell_length_a   7.45798538
_cell_length_b   10.99485929
_cell_length_c   8.35819245
_cell_angle_alpha   83.81347612
_cell_angle_beta   89.98614366
_cell_angle_gamma   89.99562835
_symmetry_Int_Tables_number   1
_chemical_formula_structural   GeH12C3(Br3N)2
_chemical_formula_sum   'Ge2 H24 C6 Br12 N4'
_cell_volume   681.37623069
_cell_formula_units_Z   2
loop_
 _symmetry_equiv_pos_site_id
 _symmetry_equiv_pos_as_xyz
  1  'x, y, z'
loop_
 _atom_site_type_symbol
 _atom_site_label
 _atom_site_symmetry_multiplicity
 _atom_site_fract_x
 _atom_site_fract_y
 _atom_site_fract_z
 _atom_site_occupancy
  C  C0  1  0.48263854  0.23261172  0.41952491  1
  C  C1  1  0.98711166  0.26876444  0.08264904  1
  C  C2  1  0.51234055  0.76899833  0.58316706  1
  C  C3  1  0.01736836  0.73236827  0.91979577  1
  N  N4  1  0.54223997  0.25975780  0.58141396  1
  N  N5  1  0.03815053  0.23980112  0.91922102  1
  N  N6  1  0.46193038  0.73918876  0.41997783  1
  N  N7  1  0.95824013  0.76063482  0.08136758  1
  H  H8  1  0.60152263  0.21418796  0.34953277  1
  H  H9  1  0.39450676  0.15266510  0.43415449  1
  H  H10  1  0.41063743  0.31214589  0.36152466  1
  H  H11  1  0.60981491  0.18563121  0.64236458  1
  H  H12  1  0.62900314  0.33363927  0.57393396  1
  H  H13  1  0.43502506  0.28049299  0.65204121  1
  H  H14  1  0.10900050  0.28524254  0.14953149  1
  H  H15  1  0.91314026  0.19127998  0.14346152  1
  H  H16  1  0.90283355  0.35068490  0.07098616  1
  H  H17  1  0.12558823  0.16601270  0.92115116  1
  H  H18  1  0.10189697  0.31347944  0.85458001  1
  H  H19  1  0.92866664  0.21600915  0.85304082  1
  H  H20  1  0.39015181  0.78532418  0.64976339  1
  H  H21  1  0.58676608  0.69196963  0.64454800  1
  H  H22  1  0.59601092  0.85119691  0.57103448  1
  H  H23  1  0.39824245  0.81255532  0.35465010  1
  H  H24  1  0.37462113  0.66532430  0.42235669  1
  H  H25  1  0.57168094  0.71511726  0.35426010  1
  H  H26  1  0.89833819  0.71261849  0.85082425  1
  H  H27  1  0.08810406  0.81190923  0.86028848  1
  H  H28  1  0.10649894  0.65296433  0.93513783  1
  H  H29  1  0.87017477  0.83380215  0.07309840  1
  H  H30  1  0.89221030  0.68645334  0.14378776  1
  H  H31  1  0.06547713  0.78310408  0.15085098  1
  C  C32  1  0.99623161  0.96182191  0.42763524  1
  C  C33  1  0.50360120  0.46223034  0.92671568  1
  Ge  Ge34  1  0.50148327  0.98904242  0.97420893  1
  Ge  Ge35  1  0.99864905  0.48884177  0.47373376  1
  Br  Br36  1  0.49493329  0.27712925  0.00021624  1
  Br  Br37  1  0.20592960  0.98673880  0.25419604  1
  Br  Br38  1  0.76371436  0.98310436  0.28967355  1
  Br  Br39  1  0.99731300  0.26026209  0.50346147  1
  Br  Br40  1  0.27398444  0.02238216  0.75225830  1
  Br  Br41  1  0.77081266  0.01645834  0.78826853  1
  Br  Br42  1  0.50277283  0.76050147  0.00393132  1
  Br  Br43  1  0.72969532  0.51664514  0.28760116  1
  Br  Br44  1  0.22624994  0.52226004  0.25188337  1
  Br  Br45  1  0.00452069  0.77664495  0.50058851  1
  Br  Br46  1  0.29403131  0.48709360  0.75337981  1
  Br  Br47  1  0.73616825  0.48298603  0.78852425  1
