# generated using pymatgen
data_ZnH12C3(Br3N)2
_symmetry_space_group_name_H-M   'P 1'
_cell_length_a   6.86745513
_cell_length_b   12.40583300
_cell_length_c   8.17859047
_cell_angle_alpha   93.15341098
_cell_angle_beta   89.99384154
_cell_angle_gamma   89.96404117
_symmetry_Int_Tables_number   1
_chemical_formula_structural   ZnH12C3(Br3N)2
_chemical_formula_sum   'Zn2 H24 C6 Br12 N4'
_cell_volume   695.73209264
_cell_formula_units_Z   2
loop_
 _symmetry_equiv_pos_site_id
 _symmetry_equiv_pos_as_xyz
  1  'x, y, z'
loop_
 _atom_site_type_symbol
 _atom_site_label
 _atom_site_symmetry_multiplicity
 _atom_site_fract_x
 _atom_site_fract_y
 _atom_site_fract_z
 _atom_site_occupancy
  C  C0  1  0.43152389  0.23365725  0.36335503  1
  C  C1  1  0.93338456  0.25699193  0.16106447  1
  C  C2  1  0.56619338  0.75684700  0.66118631  1
  C  C3  1  0.06852665  0.73385267  0.86355357  1
  N  N4  1  0.48616767  0.29394070  0.51771829  1
  N  N5  1  0.00419268  0.24700101  0.98968456  1
  N  N6  1  0.49537781  0.74697520  0.48981876  1
  N  N7  1  0.01448239  0.79400277  0.01822122  1
  H  H8  1  0.56357908  0.21257973  0.29424588  1
  H  H9  1  0.35164100  0.16056929  0.39069670  1
  H  H10  1  0.34186992  0.28660098  0.29170080  1
  H  H11  1  0.59170517  0.25401761  0.58178813  1
  H  H12  1  0.54429997  0.36944440  0.49221275  1
  H  H13  1  0.36728519  0.30845045  0.59341400  1
  H  H14  1  0.05522973  0.27795138  0.24229103  1
  H  H15  1  0.87322096  0.17908323  0.19267518  1
  H  H16  1  0.82376000  0.32104233  0.17203472  1
  H  H17  1  0.10995886  0.18692872  0.97630870  1
  H  H18  1  0.06351486  0.31881746  0.95495854  1
  H  H19  1  0.89261810  0.22678269  0.90825579  1
  H  H20  1  0.44421669  0.77750016  0.74249875  1
  H  H21  1  0.62693751  0.67898110  0.69253664  1
  H  H22  1  0.67536568  0.82105202  0.67232802  1
  H  H23  1  0.43535366  0.81874253  0.45541792  1
  H  H24  1  0.39009712  0.68672700  0.47630946  1
  H  H25  1  0.60705256  0.72708573  0.40826248  1
  H  H26  1  0.93616461  0.71272755  0.79499157  1
  H  H27  1  0.15747844  0.78691970  0.79160212  1
  H  H28  1  0.14891871  0.66079561  0.89046216  1
  H  H29  1  0.95600418  0.86951063  0.99304093  1
  H  H30  1  0.90945424  0.75400139  0.08263446  1
  H  H31  1  0.13370011  0.80848816  0.09350070  1
  C  C32  1  0.02698187  0.90981993  0.36084878  1
  C  C33  1  0.47287126  0.41012609  0.86116270  1
  Zn  Zn34  1  0.57295462  0.94876344  0.10195562  1
  Zn  Zn35  1  0.92714040  0.44873480  0.60215167  1
  Br  Br36  1  0.51690827  0.25346105  0.91780534  1
  Br  Br37  1  0.26294443  0.03225462  0.08344434  1
  Br  Br38  1  0.72679991  0.98984041  0.38299042  1
  Br  Br39  1  0.97361583  0.25497986  0.59203505  1
  Br  Br40  1  0.17715134  0.97454558  0.55209867  1
  Br  Br41  1  0.77811231  0.00216828  0.88358144  1
  Br  Br42  1  0.52675643  0.75505090  0.09212695  1
  Br  Br43  1  0.72203934  0.50224663  0.38374630  1
  Br  Br44  1  0.32303484  0.47471514  0.05273412  1
  Br  Br45  1  0.98275594  0.75333146  0.41813038  1
  Br  Br46  1  0.23708478  0.53210066  0.58352460  1
  Br  Br47  1  0.77359679  0.48987104  0.88319058  1
