# generated using pymatgen
data_CuH12C3(Br3N)2
_symmetry_space_group_name_H-M   'P 1'
_cell_length_a   8.21600948
_cell_length_b   9.62812623
_cell_length_c   8.55832277
_cell_angle_alpha   91.65820640
_cell_angle_beta   86.68480695
_cell_angle_gamma   90.25031199
_symmetry_Int_Tables_number   1
_chemical_formula_structural   CuH12C3(Br3N)2
_chemical_formula_sum   'Cu2 H24 C6 Br12 N4'
_cell_volume   675.58575806
_cell_formula_units_Z   2
loop_
 _symmetry_equiv_pos_site_id
 _symmetry_equiv_pos_as_xyz
  1  'x, y, z'
loop_
 _atom_site_type_symbol
 _atom_site_label
 _atom_site_symmetry_multiplicity
 _atom_site_fract_x
 _atom_site_fract_y
 _atom_site_fract_z
 _atom_site_occupancy
  C  C0  1  0.49450827  0.27434711  0.43385529  1
  C  C1  1  0.95460709  0.23057979  0.05534915  1
  C  C2  1  0.56556342  0.75091349  0.59522883  1
  C  C3  1  0.07274236  0.76335876  0.92264559  1
  N  N4  1  0.58126979  0.23351278  0.57301011  1
  N  N5  1  0.03614374  0.24221054  0.89732325  1
  N  N6  1  0.41569289  0.72980685  0.50829179  1
  N  N7  1  0.91177717  0.77327655  0.01008563  1
  H  H8  1  0.58219862  0.27819383  0.33304256  1
  H  H9  1  0.40044134  0.19641721  0.41257158  1
  H  H10  1  0.43668717  0.37530144  0.45825607  1
  H  H11  1  0.65811842  0.14970390  0.54446111  1
  H  H12  1  0.65127828  0.31349097  0.62019179  1
  H  H13  1  0.50002843  0.20350254  0.66267592  1
  H  H14  1  0.04580852  0.22792134  0.14298303  1
  H  H15  1  0.88120308  0.13572289  0.05810398  1
  H  H16  1  0.87497504  0.32072546  0.07623157  1
  H  H17  1  0.09890989  0.15320529  0.85836674  1
  H  H18  1  0.11771210  0.32543208  0.88779114  1
  H  H19  1  0.94838808  0.25918176  0.81773084  1
  H  H20  1  0.52998185  0.78476353  0.71568210  1
  H  H21  1  0.63267346  0.65308588  0.59582948  1
  H  H22  1  0.64079889  0.83071928  0.53775579  1
  H  H23  1  0.34237705  0.81814354  0.52284615  1
  H  H24  1  0.34837264  0.64717427  0.55421925  1
  H  H25  1  0.44134465  0.71197959  0.38832238  1
  H  H26  1  0.05189516  0.77291990  0.79849125  1
  H  H27  1  0.15246921  0.84796735  0.95920297  1
  H  H28  1  0.12884884  0.66321836  0.94182578  1
  H  H29  1  0.84518593  0.85502362  0.96610077  1
  H  H30  1  0.84337622  0.68374543  0.99319889  1
  H  H31  1  0.91859815  0.79206023  0.12914638  1
  C  C32  1  0.37088147  0.02378072  0.02381657  1
  C  C33  1  0.99378006  0.50322420  0.37117144  1
  Cu  Cu34  1  0.96019153  0.00633551  0.55875466  1
  Cu  Cu35  1  0.49935953  0.54852303  0.92094767  1
  Br  Br36  1  0.46114182  0.20852121  0.01046831  1
  Br  Br37  1  0.24469224  0.01000563  0.21927884  1
  Br  Br38  1  0.80394378  0.99071124  0.33711706  1
  Br  Br39  1  0.00390756  0.31980943  0.46962882  1
  Br  Br40  1  0.23002736  0.01916797  0.63894868  1
  Br  Br41  1  0.77234228  0.00553604  0.78902080  1
  Br  Br42  1  0.51569849  0.71778738  0.11762252  1
  Br  Br43  1  0.78364460  0.53069420  0.27568712  1
  Br  Br44  1  0.17745923  0.51310691  0.21249851  1
  Br  Br45  1  0.01326215  0.66379903  0.51602731  1
  Br  Br46  1  0.30122789  0.46982034  0.75309451  1
  Br  Br47  1  0.76448798  0.47164990  0.81539660  1
