# generated using pymatgen
data_CaH12C3(Br3N)2
_symmetry_space_group_name_H-M   'P 1'
_cell_length_a   8.02100991
_cell_length_b   11.05287359
_cell_length_c   7.95791421
_cell_angle_alpha   87.67770353
_cell_angle_beta   90.33366062
_cell_angle_gamma   90.59733648
_symmetry_Int_Tables_number   1
_chemical_formula_structural   CaH12C3(Br3N)2
_chemical_formula_sum   'Ca2 H24 C6 Br12 N4'
_cell_volume   704.88250184
_cell_formula_units_Z   2
loop_
 _symmetry_equiv_pos_site_id
 _symmetry_equiv_pos_as_xyz
  1  'x, y, z'
loop_
 _atom_site_type_symbol
 _atom_site_label
 _atom_site_symmetry_multiplicity
 _atom_site_fract_x
 _atom_site_fract_y
 _atom_site_fract_z
 _atom_site_occupancy
  C  C0  1  0.45425595  0.27585186  0.46867713  1
  C  C1  1  0.95521404  0.22562804  0.03803899  1
  C  C2  1  0.56961038  0.73933687  0.59183992  1
  C  C3  1  0.07465808  0.76390033  0.90661406  1
  N  N4  1  0.57361804  0.25147118  0.60854832  1
  N  N5  1  0.06548090  0.24281253  0.89007189  1
  N  N6  1  0.40355189  0.74093866  0.50850824  1
  N  N7  1  0.90891224  0.75680779  0.98862841  1
  H  H8  1  0.52402058  0.28836730  0.35180500  1
  H  H9  1  0.37017116  0.19767149  0.46161542  1
  H  H10  1  0.38402239  0.35703046  0.49591841  1
  H  H11  1  0.64460251  0.17493463  0.59061508  1
  H  H12  1  0.65444328  0.32407013  0.62614016  1
  H  H13  1  0.51291670  0.23403553  0.72215816  1
  H  H14  1  0.03104931  0.22924532  0.15202730  1
  H  H15  1  0.89133872  0.13805293  0.03064261  1
  H  H16  1  0.86438579  0.29886733  0.03417187  1
  H  H17  1  0.15565033  0.17635483  0.88702008  1
  H  H18  1  0.12584692  0.32695758  0.88529927  1
  H  H19  1  0.99900534  0.23913800  0.77809707  1
  H  H20  1  0.55191555  0.75227908  0.72641173  1
  H  H21  1  0.62934779  0.65264876  0.57193633  1
  H  H22  1  0.64584145  0.81332084  0.53742552  1
  H  H23  1  0.34246425  0.82051390  0.53431585  1
  H  H24  1  0.33023379  0.66870885  0.55370782  1
  H  H25  1  0.41434550  0.73600627  0.37783851  1
  H  H26  1  0.05669260  0.75428289  0.77115561  1
  H  H27  1  0.13350965  0.85109388  0.93120108  1
  H  H28  1  0.15196436  0.69030109  0.95789862  1
  H  H29  1  0.83461625  0.82818750  0.94540023  1
  H  H30  1  0.84881485  0.67645401  0.95963848  1
  H  H31  1  0.91950367  0.76007686  0.11967186  1
  C  C32  1  0.49028705  0.03728604  0.10009484  1
  C  C33  1  0.99329666  0.46635928  0.39889747  1
  Ca  Ca34  1  0.02927162  0.00452261  0.49857080  1
  Ca  Ca35  1  0.52544858  0.49758162  0.00146541  1
  Br  Br36  1  0.48272843  0.23348730  0.02012079  1
  Br  Br37  1  0.24942180  0.00681202  0.18517227  1
  Br  Br38  1  0.63862695  0.02576816  0.30631176  1
  Br  Br39  1  0.98930551  0.26771689  0.47795129  1
  Br  Br40  1  0.31006349  0.00724736  0.69651501  1
  Br  Br41  1  0.79689719  0.00936159  0.75626927  1
  Br  Br42  1  0.50031686  0.73196742  0.09784172  1
  Br  Br43  1  0.75176198  0.49242356  0.31441766  1
  Br  Br44  1  0.13843614  0.48175810  0.19264024  1
  Br  Br45  1  0.99369113  0.77027810  0.40282439  1
  Br  Br46  1  0.28637716  0.49265928  0.74757953  1
  Br  Br47  1  0.80208892  0.48950219  0.80058512  1
