# generated using pymatgen
data_SiH12C3(Br3N)2
_symmetry_space_group_name_H-M   'P 1'
_cell_length_a   7.37204940
_cell_length_b   10.96980042
_cell_length_c   8.32778347
_cell_angle_alpha   82.74106087
_cell_angle_beta   89.98588369
_cell_angle_gamma   90.00284370
_symmetry_Int_Tables_number   1
_chemical_formula_structural   SiH12C3(Br3N)2
_chemical_formula_sum   'Si2 H24 C6 Br12 N4'
_cell_volume   668.06941026
_cell_formula_units_Z   2
loop_
 _symmetry_equiv_pos_site_id
 _symmetry_equiv_pos_as_xyz
  1  'x, y, z'
loop_
 _atom_site_type_symbol
 _atom_site_label
 _atom_site_symmetry_multiplicity
 _atom_site_fract_x
 _atom_site_fract_y
 _atom_site_fract_z
 _atom_site_occupancy
  C  C0  1  0.48862252  0.23431402  0.42278624  1
  C  C1  1  0.98973090  0.26835027  0.08053775  1
  C  C2  1  0.50939609  0.76781555  0.57955072  1
  C  C3  1  0.01093546  0.73432564  0.92230655  1
  N  N4  1  0.53774343  0.26483933  0.58581762  1
  N  N5  1  0.03671034  0.23673431  0.91757515  1
  N  N6  1  0.46420279  0.73719918  0.41574250  1
  N  N7  1  0.96288841  0.76492457  0.08556607  1
  H  H8  1  0.61331181  0.21565863  0.35925309  1
  H  H9  1  0.40098829  0.15320377  0.43730569  1
  H  H10  1  0.41731220  0.31271759  0.35739659  1
  H  H11  1  0.60192331  0.19116261  0.65426648  1
  H  H12  1  0.62551846  0.33913395  0.57997412  1
  H  H13  1  0.42509202  0.28777020  0.64972831  1
  H  H14  1  0.11518063  0.28634041  0.14323005  1
  H  H15  1  0.91708481  0.19101922  0.14698621  1
  H  H16  1  0.90373585  0.35022231  0.06615476  1
  H  H17  1  0.12563950  0.16292133  0.92193832  1
  H  H18  1  0.09931001  0.31041428  0.84807022  1
  H  H19  1  0.92395178  0.21186892  0.85520780  1
  H  H20  1  0.38322038  0.78498775  0.64170896  1
  H  H21  1  0.58204201  0.69034212  0.64563106  1
  H  H22  1  0.59488500  0.84994575  0.56664230  1
  H  H23  1  0.40200920  0.81112019  0.34648596  1
  H  H24  1  0.37562121  0.66323723  0.41849371  1
  H  H25  1  0.57775972  0.71295063  0.35393591  1
  H  H26  1  0.88586417  0.71508678  0.85975887  1
  H  H27  1  0.08118861  0.81291972  0.85620943  1
  H  H28  1  0.09923187  0.65355309  0.93639870  1
  H  H29  1  0.87437508  0.83879986  0.08016390  1
  H  H30  1  0.89998037  0.69105597  0.15473266  1
  H  H31  1  0.07586856  0.78861086  0.14846747  1
  C  C32  1  0.99572478  0.95887982  0.42663984  1
  C  C33  1  0.50371811  0.45856002  0.92738680  1
  Si  Si34  1  0.49959184  0.98509287  0.96909764  1
  Si  Si35  1  0.00031764  0.48534698  0.46991856  1
  Br  Br36  1  0.49820683  0.27115357  0.99933541  1
  Br  Br37  1  0.21132416  0.98598445  0.25522309  1
  Br  Br38  1  0.76400198  0.98309833  0.28199287  1
  Br  Br39  1  0.99938818  0.26571510  0.50069789  1
  Br  Br40  1  0.27595070  0.01871602  0.75834132  1
  Br  Br41  1  0.75969110  0.01475020  0.78848903  1
  Br  Br42  1  0.50073853  0.76544384  0.99955239  1
  Br  Br43  1  0.74066665  0.51466021  0.28888010  1
  Br  Br44  1  0.22424283  0.51887948  0.25906495  1
  Br  Br45  1  0.00141636  0.77156222  0.49883524  1
  Br  Br46  1  0.28826629  0.48564606  0.75611155  1
  Br  Br47  1  0.73545296  0.48304303  0.78270672  1
