# generated using pymatgen
data_MgH12C3(Br3N)2
_symmetry_space_group_name_H-M   'P 1'
_cell_length_a   8.09154147
_cell_length_b   10.66603918
_cell_length_c   8.11890953
_cell_angle_alpha   90.44712922
_cell_angle_beta   89.99968135
_cell_angle_gamma   90.72103039
_symmetry_Int_Tables_number   1
_chemical_formula_structural   MgH12C3(Br3N)2
_chemical_formula_sum   'Mg2 H24 C6 Br12 N4'
_cell_volume   700.62321792
_cell_formula_units_Z   2
loop_
 _symmetry_equiv_pos_site_id
 _symmetry_equiv_pos_as_xyz
  1  'x, y, z'
loop_
 _atom_site_type_symbol
 _atom_site_label
 _atom_site_symmetry_multiplicity
 _atom_site_fract_x
 _atom_site_fract_y
 _atom_site_fract_z
 _atom_site_occupancy
  C  C0  1  0.46120826  0.26858992  0.47299368  1
  C  C1  1  0.96976285  0.23810315  0.03123580  1
  C  C2  1  0.56009182  0.74668170  0.56966775  1
  C  C3  1  0.05968867  0.74963269  0.92889634  1
  N  N4  1  0.58150106  0.24219719  0.60648872  1
  N  N5  1  0.07719980  0.25105204  0.88379348  1
  N  N6  1  0.39579879  0.74255381  0.48832551  1
  N  N7  1  0.89929059  0.76225110  0.01566153  1
  H  H8  1  0.52736783  0.27730720  0.35605895  1
  H  H9  1  0.37080993  0.19153447  0.46705998  1
  H  H10  1  0.39814380  0.35593366  0.50317009  1
  H  H11  1  0.64921884  0.16232970  0.58291207  1
  H  H12  1  0.66600324  0.31565183  0.62292164  1
  H  H13  1  0.52411441  0.22895962  0.71996493  1
  H  H14  1  0.04686170  0.24110337  0.14181081  1
  H  H15  1  0.90272478  0.14857113  0.02309745  1
  H  H16  1  0.88156402  0.31506273  0.03206351  1
  H  H17  1  0.16245886  0.17917473  0.87519135  1
  H  H18  1  0.14422133  0.33479846  0.88339021  1
  H  H19  1  0.01058449  0.24927770  0.77395041  1
  H  H20  1  0.54219962  0.76703428  0.70087923  1
  H  H21  1  0.62017727  0.65612682  0.55308209  1
  H  H22  1  0.63563594  0.82096890  0.51454399  1
  H  H23  1  0.33362946  0.82582747  0.50819401  1
  H  H24  1  0.32380888  0.67058008  0.53896223  1
  H  H25  1  0.40650774  0.72664954  0.36201154  1
  H  H26  1  0.03497514  0.73232265  0.79792678  1
  H  H27  1  0.13242443  0.83600543  0.94526634  1
  H  H28  1  0.12627862  0.67022477  0.97951589  1
  H  H29  1  0.83441693  0.83760556  0.96668136  1
  H  H30  1  0.82614123  0.68270853  0.99919163  1
  H  H31  1  0.91536140  0.77754081  0.14176030  1
  C  C32  1  0.48739392  0.02266190  0.09613166  1
  C  C33  1  0.99022550  0.47786047  0.40603978  1
  Mg  Mg34  1  0.01624841  0.99490880  0.58983973  1
  Mg  Mg35  1  0.51386234  0.50276935  0.91170262  1
  Br  Br36  1  0.47825624  0.28346379  0.01871411  1
  Br  Br37  1  0.27653779  0.00596769  0.20666555  1
  Br  Br38  1  0.66224600  0.01542210  0.25955230  1
  Br  Br39  1  0.98186667  0.21097753  0.47532258  1
  Br  Br40  1  0.29499603  0.00078737  0.71700029  1
  Br  Br41  1  0.77923211  0.99400114  0.78464555  1
  Br  Br42  1  0.49627336  0.69470830  0.08772431  1
  Br  Br43  1  0.78194354  0.49102179  0.29126973  1
  Br  Br44  1  0.16865904  0.49191010  0.24779766  1
  Br  Br45  1  0.99051792  0.80237882  0.41759173  1
  Br  Br46  1  0.27184091  0.50920032  0.72362389  1
  Br  Br47  1  0.78975221  0.49767775  0.78000550  1
