# generated using pymatgen
data_H4CBr2N
_symmetry_space_group_name_H-M   'P 1'
_cell_length_a   7.39521553
_cell_length_b   10.65360757
_cell_length_c   8.49545074
_cell_angle_alpha   102.99301363
_cell_angle_beta   95.44569805
_cell_angle_gamma   89.56884570
_symmetry_Int_Tables_number   1
_chemical_formula_structural   H4CBr2N
_chemical_formula_sum   'H24 C6 Br12 N6'
_cell_volume   649.17456200
_cell_formula_units_Z   6
loop_
 _symmetry_equiv_pos_site_id
 _symmetry_equiv_pos_as_xyz
  1  'x, y, z'
loop_
 _atom_site_type_symbol
 _atom_site_label
 _atom_site_symmetry_multiplicity
 _atom_site_fract_x
 _atom_site_fract_y
 _atom_site_fract_z
 _atom_site_occupancy
  C  C0  1  0.52006935  0.29809468  0.43819249  1
  C  C1  1  0.99339336  0.25682531  0.10714794  1
  C  C2  1  0.55190587  0.67882053  0.56329033  1
  C  C3  1  0.91541694  0.79302909  0.88456169  1
  N  N4  1  0.48770776  0.23794937  0.57480617  1
  N  N5  1  0.02981210  0.24668719  0.95991785  1
  N  N6  1  0.60387185  0.76617053  0.46108436  1
  N  N7  1  0.93233702  0.73575448  0.02900405  1
  H  H8  1  0.66369588  0.32486932  0.44651885  1
  H  H9  1  0.48277184  0.22944595  0.32347549  1
  H  H10  1  0.43631409  0.38396614  0.44602448  1
  H  H11  1  0.57458160  0.16061774  0.58462128  1
  H  H12  1  0.51138384  0.30355488  0.68515828  1
  H  H13  1  0.35409068  0.20587338  0.56541689  1
  H  H14  1  0.08909156  0.30413969  0.20769077  1
  H  H15  1  0.87103196  0.20974398  0.12968095  1
  H  H16  1  0.62155645  0.39164178  0.09819044  1
  H  H17  1  0.04561792  0.00216928  0.62939367  1
  H  H18  1  0.14554300  0.28892938  0.93588560  1
  H  H19  1  0.94302308  0.19620113  0.86314392  1
  H  H20  1  0.47575778  0.73377653  0.65964204  1
  H  H21  1  0.67447127  0.63793042  0.61312779  1
  H  H22  1  0.67227341  0.84991532  0.53100733  1
  H  H23  1  0.48929876  0.79390608  0.39909185  1
  H  H24  1  0.46528593  0.60165931  0.48725719  1
  H  H25  1  0.68258994  0.71590143  0.37359554  1
  H  H26  1  0.77307008  0.81585818  0.85833985  1
  H  H27  1  0.99707991  0.88169609  0.91108483  1
  H  H28  1  0.96496391  0.72433948  0.78191582  1
  H  H29  1  0.88615951  0.79868853  0.12798264  1
  H  H30  1  0.86058846  0.64900566  0.00875968  1
  H  H31  1  0.06506465  0.71286384  0.06176775  1
  C  C32  1  0.43831133  0.94659689  0.07638324  1
  C  C33  1  0.98262616  0.44232748  0.59422938  1
  N  N34  1  0.17400800  0.97563192  0.59087867  1
  N  N35  1  0.46370351  0.62058843  0.14027875  1
  Br  Br36  1  0.50028908  0.27813229  0.99862511  1
  Br  Br37  1  0.25509646  0.00820287  0.22574280  1
  Br  Br38  1  0.68204503  0.99605406  0.20012912  1
  Br  Br39  1  0.02498795  0.24501495  0.51891524  1
  Br  Br40  1  0.31141379  0.96497205  0.81100642  1
  Br  Br41  1  0.75764316  0.03220410  0.70058259  1
  Br  Br42  1  0.43288978  0.73900371  0.00744432  1
  Br  Br43  1  0.81696493  0.50127279  0.23588646  1
  Br  Br44  1  0.23071019  0.55804392  0.18311281  1
  Br  Br45  1  0.11522007  0.80196401  0.46923877  1
  Br  Br46  1  0.22621303  0.50735345  0.71832631  1
  Br  Br47  1  0.80808154  0.45269068  0.78273877  1
