# generated using pymatgen
data_BiH12C2(Br2N)3
_symmetry_space_group_name_H-M   'P 1'
_cell_length_a   8.02485486
_cell_length_b   11.35045351
_cell_length_c   7.98073894
_cell_angle_alpha   89.55730471
_cell_angle_beta   84.54609020
_cell_angle_gamma   85.30625890
_symmetry_Int_Tables_number   1
_chemical_formula_structural   BiH12C2(Br2N)3
_chemical_formula_sum   'Bi2 H24 C4 Br12 N6'
_cell_volume   721.21384091
_cell_formula_units_Z   2
loop_
 _symmetry_equiv_pos_site_id
 _symmetry_equiv_pos_as_xyz
  1  'x, y, z'
loop_
 _atom_site_type_symbol
 _atom_site_label
 _atom_site_symmetry_multiplicity
 _atom_site_fract_x
 _atom_site_fract_y
 _atom_site_fract_z
 _atom_site_occupancy
  C  C0  1  0.44350720  0.25901320  0.44786800  1
  C  C1  1  0.95391765  0.22182480  0.02955107  1
  C  C2  1  0.62074477  0.75055872  0.53596248  1
  C  C3  1  0.04811785  0.75615901  0.94371313  1
  N  N4  1  0.56285918  0.21279301  0.56790659  1
  N  N5  1  0.07952567  0.26586079  0.90074616  1
  N  N6  1  0.44198150  0.77376678  0.50659099  1
  N  N7  1  0.90809145  0.76570350  0.07889622  1
  H  H8  1  0.49631972  0.23435478  0.32036432  1
  H  H9  1  0.32394493  0.21973745  0.47682632  1
  H  H10  1  0.42307828  0.35508982  0.46195987  1
  H  H11  1  0.58141378  0.12158946  0.55960276  1
  H  H12  1  0.68201208  0.24416988  0.54361924  1
  H  H13  1  0.52110516  0.23254412  0.69273841  1
  H  H14  1  0.00680188  0.21541071  0.15114285  1
  H  H15  1  0.91977424  0.13573527  0.98965850  1
  H  H16  1  0.84250461  0.28454085  0.03974448  1
  H  H17  1  0.18643614  0.20777454  0.88567075  1
  H  H18  1  0.11488328  0.34748775  0.93412592  1
  H  H19  1  0.03314473  0.27356921  0.78183960  1
  H  H20  1  0.63365200  0.73860182  0.67030078  1
  H  H21  1  0.67477072  0.67104938  0.46825295  1
  H  H22  1  0.68658337  0.82672552  0.49031692  1
  H  H23  1  0.38526287  0.84113095  0.58565502  1
  H  H24  1  0.37375395  0.70113945  0.52972200  1
  H  H25  1  0.42952477  0.80644221  0.37908951  1
  H  H26  1  0.00750378  0.71373106  0.83360349  1
  H  H27  1  0.08713145  0.84411891  0.90964443  1
  H  H28  1  0.15293249  0.70214946  0.99025374  1
  H  H29  1  0.79829638  0.80009096  0.03311709  1
  H  H30  1  0.89017891  0.68033269  0.13935906  1
  H  H31  1  0.93160009  0.82173884  0.17395573  1
  N  N32  1  0.44799745  0.88384086  0.19725336  1
  N  N33  1  0.89631505  0.56578989  0.27340596  1
  Bi  Bi34  1  0.00346514  0.99938069  0.51850243  1
  Bi  Bi35  1  0.47867020  0.50084511  0.98431049  1
  Br  Br36  1  0.48560629  0.25699300  0.98764880  1
  Br  Br37  1  0.24790112  0.98726637  0.18279550  1
  Br  Br38  1  0.75362669  0.01621405  0.29132857  1
  Br  Br39  1  0.96889089  0.25849155  0.51868359  1
  Br  Br40  1  0.28796539  0.01668238  0.71792978  1
  Br  Br41  1  0.76997174  0.98901362  0.78959943  1
  Br  Br42  1  0.48588935  0.77485118  0.00909033  1
  Br  Br43  1  0.70836611  0.47062273  0.27725708  1
  Br  Br44  1  0.10935671  0.47378673  0.21051726  1
  Br  Br45  1  0.04641895  0.75427818  0.47947880  1
  Br  Br46  1  0.29623298  0.51479911  0.70910713  1
  Br  Br47  1  0.77199479  0.51228791  0.80158971  1
