# generated using pymatgen
data_TlH12C2(Br2N)3
_symmetry_space_group_name_H-M   'P 1'
_cell_length_a   8.08794639
_cell_length_b   10.97579255
_cell_length_c   7.97599602
_cell_angle_alpha   90.11640450
_cell_angle_beta   89.88268958
_cell_angle_gamma   90.00728105
_symmetry_Int_Tables_number   1
_chemical_formula_structural   TlH12C2(Br2N)3
_chemical_formula_sum   'Tl2 H24 C4 Br12 N6'
_cell_volume   708.03915113
_cell_formula_units_Z   2
loop_
 _symmetry_equiv_pos_site_id
 _symmetry_equiv_pos_as_xyz
  1  'x, y, z'
loop_
 _atom_site_type_symbol
 _atom_site_label
 _atom_site_symmetry_multiplicity
 _atom_site_fract_x
 _atom_site_fract_y
 _atom_site_fract_z
 _atom_site_occupancy
  C  C0  1  0.47530508  0.26723106  0.47528507  1
  C  C1  1  0.97642527  0.23261455  0.02349196  1
  C  C2  1  0.56967817  0.74178831  0.56898139  1
  C  C3  1  0.06995602  0.75814941  0.93211129  1
  N  N4  1  0.57153128  0.24874127  0.63152018  1
  N  N5  1  0.07142132  0.25265184  0.86644162  1
  N  N6  1  0.39813964  0.75273324  0.50542982  1
  N  N7  1  0.89805615  0.74736232  0.99552184  1
  H  H8  1  0.55809190  0.25567148  0.36803137  1
  H  H9  1  0.37555289  0.19992908  0.47042719  1
  H  H10  1  0.42289191  0.35908644  0.47732102  1
  H  H11  1  0.62470051  0.16280443  0.63763979  1
  H  H12  1  0.66652698  0.31213130  0.64155691  1
  H  H13  1  0.50061842  0.25764642  0.74037380  1
  H  H14  1  0.05940446  0.24564703  0.12992248  1
  H  H15  1  0.92683219  0.13990566  0.02215659  1
  H  H16  1  0.87467316  0.29823131  0.02925196  1
  H  H17  1  0.16870400  0.19120133  0.85629954  1
  H  H18  1  0.12135085  0.33965499  0.85948680  1
  H  H19  1  0.00073652  0.24200200  0.75802857  1
  H  H20  1  0.56760477  0.75847920  0.70433187  1
  H  H21  1  0.61682164  0.65047724  0.54192586  1
  H  H22  1  0.64632694  0.81087796  0.50836575  1
  H  H23  1  0.34733651  0.83527833  0.54559449  1
  H  H24  1  0.32575207  0.68150193  0.55298472  1
  H  H25  1  0.39436544  0.74911728  0.37556230  1
  H  H26  1  0.06853550  0.74119580  0.79682003  1
  H  H27  1  0.11707897  0.84949988  0.95884209  1
  H  H28  1  0.14632142  0.68917438  0.99301625  1
  H  H29  1  0.82594685  0.81861635  0.94793393  1
  H  H30  1  0.84720993  0.66488476  0.95534950  1
  H  H31  1  0.89365855  0.75092090  0.12537655  1
  N  N32  1  0.48584894  0.96952546  0.11637988  1
  N  N33  1  0.98526054  0.52955195  0.38453159  1
  Tl  Tl34  1  0.99982044  0.97534411  0.53804336  1
  Tl  Tl35  1  0.49945216  0.52358488  0.96345744  1
  Br  Br36  1  0.45981994  0.27683818  0.03165606  1
  Br  Br37  1  0.27425111  0.00432303  0.22224475  1
  Br  Br38  1  0.66542275  0.01119710  0.26728585  1
  Br  Br39  1  0.96010738  0.22188478  0.46685055  1
  Br  Br40  1  0.29717986  0.00499249  0.72510923  1
  Br  Br41  1  0.76284868  0.99210791  0.79935658  1
  Br  Br42  1  0.49098371  0.76541564  0.07721982  1
  Br  Br43  1  0.77399473  0.49501174  0.27864526  1
  Br  Br44  1  0.16551415  0.48814183  0.23355408  1
  Br  Br45  1  0.99091876  0.73347222  0.42384427  1
  Br  Br46  1  0.26400879  0.50810576  0.70140918  1
  Br  Br47  1  0.79703649  0.49537371  0.77532618  1
