# generated using pymatgen
data_CaBeH12C2(I3N)2
_symmetry_space_group_name_H-M   'P 1'
_cell_length_a   7.49537013
_cell_length_b   12.69396921
_cell_length_c   9.22129550
_cell_angle_alpha   92.49533620
_cell_angle_beta   90.00808631
_cell_angle_gamma   89.97148606
_symmetry_Int_Tables_number   1
_chemical_formula_structural   CaBeH12C2(I3N)2
_chemical_formula_sum   'Ca2 Be2 H24 C4 I12 N4'
_cell_volume   876.53729598
_cell_formula_units_Z   2
loop_
 _symmetry_equiv_pos_site_id
 _symmetry_equiv_pos_as_xyz
  1  'x, y, z'
loop_
 _atom_site_type_symbol
 _atom_site_label
 _atom_site_symmetry_multiplicity
 _atom_site_fract_x
 _atom_site_fract_y
 _atom_site_fract_z
 _atom_site_occupancy
  C  C0  1  0.33769701  0.25868346  0.37133532  1
  C  C1  1  0.82892739  0.26284027  0.12544205  1
  C  C2  1  0.67135601  0.76297631  0.62534553  1
  C  C3  1  0.16221587  0.75878238  0.87132370  1
  N  N4  1  0.47297797  0.25026505  0.48748793  1
  N  N5  1  0.97149364  0.25191648  0.01383753  1
  N  N6  1  0.52841807  0.75182815  0.51406864  1
  N  N7  1  0.02720181  0.75017704  0.98760164  1
  H  H8  1  0.39849099  0.23874509  0.26560967  1
  H  H9  1  0.22747832  0.20496346  0.39268025  1
  H  H10  1  0.28627904  0.33947510  0.37336065  1
  H  H11  1  0.54097614  0.17900613  0.47817826  1
  H  H12  1  0.56648437  0.31113896  0.48088825  1
  H  H13  1  0.41965326  0.25556656  0.59266731  1
  H  H14  1  0.88881168  0.25876127  0.23351282  1
  H  H15  1  0.73122267  0.19972247  0.10624115  1
  H  H16  1  0.76567840  0.33998562  0.11599192  1
  H  H17  1  0.03921925  0.18103114  0.01787025  1
  H  H18  1  0.06445567  0.31327191  0.02906800  1
  H  H19  1  0.92171111  0.25501436  0.90839169  1
  H  H20  1  0.61192509  0.75883259  0.73355488  1
  H  H21  1  0.76936285  0.69999597  0.60594111  1
  H  H22  1  0.73410430  0.84020775  0.61571033  1
  H  H23  1  0.43516384  0.81306280  0.52945607  1
  H  H24  1  0.46115529  0.68084262  0.51826594  1
  H  H25  1  0.57777528  0.75497125  0.40850427  1
  H  H26  1  0.10123876  0.73900865  0.76561918  1
  H  H27  1  0.21346346  0.83958586  0.87352908  1
  H  H28  1  0.27260807  0.70504186  0.89236172  1
  H  H29  1  0.93342566  0.81097423  0.98113568  1
  H  H30  1  0.95950101  0.67885984  0.97833502  1
  H  H31  1  0.08070520  0.75550219  0.09273045  1
  Be  Be32  1  0.58803280  0.93285621  0.10999743  1
  Be  Be33  1  0.91174821  0.43286035  0.60990995  1
  Ca  Ca34  1  0.09526331  0.97762400  0.39144425  1
  Ca  Ca35  1  0.40458547  0.47752307  0.89139795  1
  I  I36  1  0.43552287  0.24991111  0.87065366  1
  I  I37  1  0.28207330  0.00908606  0.10166354  1
  I  I38  1  0.69932390  0.01402236  0.34283433  1
  I  I39  1  0.93167059  0.24421414  0.62293052  1
  I  I40  1  0.31828553  0.98854966  0.65059012  1
  I  I41  1  0.77493869  0.98322274  0.91724233  1
  I  I42  1  0.56828329  0.74422515  0.12306977  1
  I  I43  1  0.72485478  0.48331565  0.41708324  1
  I  I44  1  0.18146138  0.48854791  0.15044781  1
  I  I45  1  0.06480727  0.74999089  0.37067368  1
  I  I46  1  0.21763335  0.50898951  0.60163715  1
  I  I47  1  0.80036153  0.51410268  0.84267460  1
