# generated using pymatgen
data_H12IrC2(Br2N)3
_symmetry_space_group_name_H-M   'P 1'
_cell_length_a   7.96653090
_cell_length_b   12.06650900
_cell_length_c   6.75402404
_cell_angle_alpha   94.50000249
_cell_angle_beta   90.89889268
_cell_angle_gamma   90.08662426
_symmetry_Int_Tables_number   1
_chemical_formula_structural   H12IrC2(Br2N)3
_chemical_formula_sum   'H24 Ir2 C4 Br12 N6'
_cell_volume   647.16875342
_cell_formula_units_Z   2
loop_
 _symmetry_equiv_pos_site_id
 _symmetry_equiv_pos_as_xyz
  1  'x, y, z'
loop_
 _atom_site_type_symbol
 _atom_site_label
 _atom_site_symmetry_multiplicity
 _atom_site_fract_x
 _atom_site_fract_y
 _atom_site_fract_z
 _atom_site_occupancy
  C  C0  1  0.43457732  0.21885109  0.46034513  1
  C  C1  1  0.94378629  0.28545005  0.05717312  1
  C  C2  1  0.54797609  0.79530322  0.53362056  1
  C  C3  1  0.06028578  0.70944473  0.96488267  1
  N  N4  1  0.61527508  0.23268454  0.50812130  1
  N  N5  1  0.11698891  0.26431567  0.98996364  1
  N  N6  1  0.41157794  0.71394643  0.48409302  1
  N  N7  1  0.91508264  0.78422596  0.00127454  1
  H  H8  1  0.41805415  0.20035335  0.30026899  1
  H  H9  1  0.38540644  0.15078612  0.54002388  1
  H  H10  1  0.36951291  0.29593558  0.50710926  1
  H  H11  1  0.68522154  0.16829376  0.44020799  1
  H  H12  1  0.66497481  0.31007143  0.47025842  1
  H  H13  1  0.63322051  0.23252815  0.66081692  1
  H  H14  1  0.94707514  0.32086452  0.21110579  1
  H  H15  1  0.87397591  0.20706130  0.04670436  1
  H  H16  1  0.88387910  0.34354870  0.96231727  1
  H  H17  1  0.16729890  0.18768626  0.03187623  1
  H  H18  1  0.19677739  0.32855589  0.04167522  1
  H  H19  1  0.11844525  0.25787431  0.83526864  1
  H  H20  1  0.53056220  0.83460305  0.68277224  1
  H  H21  1  0.66829234  0.75165770  0.52716458  1
  H  H22  1  0.54722345  0.85805700  0.42512122  1
  H  H23  1  0.29183327  0.74897514  0.49308989  1
  H  H24  1  0.40978291  0.64758892  0.57470030  1
  H  H25  1  0.42261759  0.68023922  0.33851098  1
  H  H26  1  0.05453786  0.67174040  0.81281144  1
  H  H27  1  0.17580916  0.75823869  0.98723380  1
  H  H28  1  0.05933236  0.64481744  0.06983811  1
  H  H29  1  0.91144356  0.85141119  0.91248885  1
  H  H30  1  0.79924639  0.74425159  0.97972243  1
  H  H31  1  0.91645606  0.81717077  0.14819637  1
  N  N32  1  0.27745807  0.06223892  0.02684033  1
  N  N33  1  0.77913679  0.43545074  0.48003969  1
  Ir  Ir34  1  0.01378222  0.00126933  0.51190623  1
  Ir  Ir35  1  0.51903528  0.49632570  0.98646572  1
  Br  Br36  1  0.53223647  0.28909433  0.97678675  1
  Br  Br37  1  0.23508125  0.96837529  0.24140656  1
  Br  Br38  1  0.77281201  0.00516680  0.27125816  1
  Br  Br39  1  0.02768453  0.20784095  0.52344734  1
  Br  Br40  1  0.25586496  0.98683659  0.76432482  1
  Br  Br41  1  0.80751831  0.01276356  0.78165104  1
  Br  Br42  1  0.51157024  0.70771804  0.00553503  1
  Br  Br43  1  0.73862842  0.53168705  0.26657863  1
  Br  Br44  1  0.28014254  0.49135335  0.22099210  1
  Br  Br45  1  0.00405576  0.78954891  0.48684599  1
  Br  Br46  1  0.30758420  0.48805709  0.71470050  1
  Br  Br47  1  0.76090344  0.50981944  0.74276054  1
