# generated using pymatgen
data_H12WC2(Br2N)3
_symmetry_space_group_name_H-M   'P 1'
_cell_length_a   8.97476045
_cell_length_b   10.43973771
_cell_length_c   7.73035606
_cell_angle_alpha   98.72302082
_cell_angle_beta   86.60725788
_cell_angle_gamma   93.97561550
_symmetry_Int_Tables_number   1
_chemical_formula_structural   H12WC2(Br2N)3
_chemical_formula_sum   'H24 W2 C4 Br12 N6'
_cell_volume   713.31821151
_cell_formula_units_Z   2
loop_
 _symmetry_equiv_pos_site_id
 _symmetry_equiv_pos_as_xyz
  1  'x, y, z'
loop_
 _atom_site_type_symbol
 _atom_site_label
 _atom_site_symmetry_multiplicity
 _atom_site_fract_x
 _atom_site_fract_y
 _atom_site_fract_z
 _atom_site_occupancy
  C  C0  1  0.61151309  0.35336419  0.48031816  1
  C  C1  1  0.84556138  0.17728280  0.05971708  1
  C  C2  1  0.66949412  0.69019122  0.46880256  1
  C  C3  1  0.89147964  0.82674015  0.91275392  1
  N  N4  1  0.59516456  0.29125618  0.64185229  1
  N  N5  1  0.96654095  0.22090440  0.93769276  1
  N  N6  1  0.53320561  0.69506212  0.36972599  1
  N  N7  1  0.82098569  0.77715537  0.07077759  1
  H  H8  1  0.72767799  0.39083052  0.46542074  1
  H  H9  1  0.58452531  0.28001021  0.36803051  1
  H  H10  1  0.53440362  0.43122133  0.49188600  1
  H  H11  1  0.67512497  0.21965693  0.63041243  1
  H  H12  1  0.61427492  0.35734849  0.75582436  1
  H  H13  1  0.48940028  0.24788934  0.65793849  1
  H  H14  1  0.89182069  0.16340460  0.18314139  1
  H  H15  1  0.79022015  0.08732104  0.99621177  1
  H  H16  1  0.76359930  0.25181028  0.08452468  1
  H  H17  1  0.06889663  0.18509859  0.95327414  1
  H  H18  1  0.98534414  0.32073295  0.95753963  1
  H  H19  1  0.94042941  0.19203720  0.80380964  1
  H  H20  1  0.63646558  0.67577485  0.60348727  1
  H  H21  1  0.73415618  0.60926570  0.40482009  1
  H  H22  1  0.73774259  0.78184978  0.47223329  1
  H  H23  1  0.51804946  0.78836216  0.34437150  1
  H  H24  1  0.43351614  0.66070300  0.43711856  1
  H  H25  1  0.54283713  0.63391561  0.24932550  1
  H  H26  1  0.81300311  0.80720398  0.80802739  1
  H  H27  1  0.91583813  0.93117761  0.94549506  1
  H  H28  1  0.99478642  0.77833358  0.87388667  1
  H  H29  1  0.73261643  0.83447450  0.12237103  1
  H  H30  1  0.77882764  0.67909103  0.04457970  1
  H  H31  1  0.89905940  0.78399297  0.16528475  1
  N  N32  1  0.25364316  0.90935999  0.77277275  1
  N  N33  1  0.28308482  0.58763390  0.52171959  1
  W  W34  1  0.36443282  0.93561542  0.95514731  1
  W  W35  1  0.15122210  0.46428217  0.53508133  1
  Br  Br36  1  0.35552114  0.17818650  0.99115658  1
  Br  Br37  1  0.14995400  0.93128306  0.19040660  1
  Br  Br38  1  0.55310336  0.98725643  0.22754212  1
  Br  Br39  1  0.25497845  0.26097231  0.40270903  1
  Br  Br40  1  0.58968950  0.96283407  0.75408508  1
  Br  Br41  1  0.87814215  0.11684068  0.53996181  1
  Br  Br42  1  0.41115526  0.70758075  0.96172050  1
  Br  Br43  1  0.65270903  0.47790024  0.04185484  1
  Br  Br44  1  0.01935681  0.48833782  0.26386004  1
  Br  Br45  1  0.19997748  0.91068319  0.55237290  1
  Br  Br46  1  0.22971369  0.42242314  0.82704642  1
  Br  Br47  1  0.91677929  0.53542588  0.70220473  1
