# generated using pymatgen
data_TaH12C2(Br2N)3
_symmetry_space_group_name_H-M   'P 1'
_cell_length_a   9.65030397
_cell_length_b   9.45347918
_cell_length_c   7.79847550
_cell_angle_alpha   108.00300563
_cell_angle_beta   89.99034178
_cell_angle_gamma   89.99386665
_symmetry_Int_Tables_number   1
_chemical_formula_structural   TaH12C2(Br2N)3
_chemical_formula_sum   'Ta2 H24 C4 Br12 N6'
_cell_volume   676.61447954
_cell_formula_units_Z   2
loop_
 _symmetry_equiv_pos_site_id
 _symmetry_equiv_pos_as_xyz
  1  'x, y, z'
loop_
 _atom_site_type_symbol
 _atom_site_label
 _atom_site_symmetry_multiplicity
 _atom_site_fract_x
 _atom_site_fract_y
 _atom_site_fract_z
 _atom_site_occupancy
  C  C0  1  0.55852005  0.33786082  0.54340008  1
  C  C1  1  0.97228480  0.22954894  0.95038827  1
  C  C2  1  0.53039404  0.73451616  0.44500444  1
  C  C3  1  0.93871349  0.83503073  0.04400426  1
  N  N4  1  0.67223295  0.30593640  0.65456712  1
  N  N5  1  0.06361223  0.13704937  0.80567106  1
  N  N6  1  0.43772717  0.63768533  0.30547213  1
  N  N7  1  0.82624113  0.80260482  0.15660625  1
  H  H8  1  0.60374006  0.35581290  0.42277532  1
  H  H9  1  0.48710443  0.24355100  0.50282441  1
  H  H10  1  0.50272825  0.43735028  0.62327390  1
  H  H11  1  0.70549573  0.19470610  0.61218778  1
  H  H12  1  0.75675290  0.37366253  0.64948733  1
  H  H13  1  0.64704255  0.33379916  0.79172200  1
  H  H14  1  0.03160996  0.27386903  0.07451031  1
  H  H15  1  0.88654959  0.16047398  0.97061377  1
  H  H16  1  0.93096554  0.32185341  0.90942956  1
  H  H17  1  0.12573545  0.06599867  0.85018829  1
  H  H18  1  0.12820001  0.20277292  0.75650596  1
  H  H19  1  0.99812785  0.07151346  0.70117381  1
  H  H20  1  0.47345172  0.78033586  0.57089089  1
  H  H21  1  0.61854790  0.66815972  0.46455296  1
  H  H22  1  0.56757537  0.82585206  0.39895823  1
  H  H23  1  0.37052510  0.70034310  0.25519681  1
  H  H24  1  0.37806760  0.56775484  0.35485288  1
  H  H25  1  0.50214837  0.57071830  0.20063855  1
  H  H26  1  0.89220143  0.85390008  0.92464261  1
  H  H27  1  0.99512332  0.93413785  0.12358742  1
  H  H28  1  0.00984982  0.74054774  0.00134668  1
  H  H29  1  0.74123958  0.86990939  0.15229225  1
  H  H30  1  0.79346236  0.69115288  0.11465237  1
  H  H31  1  0.85234718  0.83096734  0.29344140  1
  N  N32  1  0.24784555  0.87427565  0.85587212  1
  N  N33  1  0.25258759  0.37356647  0.35676995  1
  Ta  Ta34  1  0.39324918  0.96004047  0.99986791  1
  Ta  Ta35  1  0.10670824  0.45974699  0.49962030  1
  Br  Br36  1  0.32594543  0.28250843  0.13043345  1
  Br  Br37  1  0.29390205  0.97206611  0.29912733  1
  Br  Br38  1  0.63397737  0.07459963  0.13296524  1
  Br  Br39  1  0.97819461  0.22103514  0.40721195  1
  Br  Br40  1  0.43398420  0.10656864  0.77462326  1
  Br  Br41  1  0.80642722  0.96564236  0.59270441  1
  Br  Br42  1  0.52147197  0.72087277  0.90440699  1
  Br  Br43  1  0.69300535  0.46273756  0.09120694  1
  Br  Br44  1  0.06875819  0.60587976  0.27301467  1
  Br  Br45  1  0.17585343  0.78210311  0.62911739  1
  Br  Br46  1  0.20411615  0.47250420  0.80006593  1
  Br  Br47  1  0.86567926  0.57655584  0.62842966  1
