# generated using pymatgen
data_HfH12C2(Br2N)3
_symmetry_space_group_name_H-M   'P 1'
_cell_length_a   7.98774057
_cell_length_b   10.63090815
_cell_length_c   8.05428337
_cell_angle_alpha   84.68490070
_cell_angle_beta   94.41838932
_cell_angle_gamma   89.96813010
_symmetry_Int_Tables_number   1
_chemical_formula_structural   HfH12C2(Br2N)3
_chemical_formula_sum   'Hf2 H24 C4 Br12 N6'
_cell_volume   678.96004660
_cell_formula_units_Z   2
loop_
 _symmetry_equiv_pos_site_id
 _symmetry_equiv_pos_as_xyz
  1  'x, y, z'
loop_
 _atom_site_type_symbol
 _atom_site_label
 _atom_site_symmetry_multiplicity
 _atom_site_fract_x
 _atom_site_fract_y
 _atom_site_fract_z
 _atom_site_occupancy
  C  C0  1  0.54196143  0.24344100  0.37632542  1
  C  C1  1  0.03448067  0.25442454  0.08596574  1
  C  C2  1  0.50226519  0.76127147  0.60203548  1
  C  C3  1  0.98468242  0.71625636  0.88356439  1
  N  N4  1  0.45304021  0.28601462  0.51933677  1
  N  N5  1  0.07776902  0.23115641  0.91604986  1
  N  N6  1  0.47027677  0.74227206  0.42237687  1
  N  N7  1  0.00141556  0.79968020  0.02548573  1
  H  H8  1  0.52499276  0.14123071  0.37587017  1
  H  H9  1  0.33667216  0.32497863  0.47709502  1
  H  H10  1  0.49555212  0.40030333  0.21341115  1
  H  H11  1  0.43032717  0.20899111  0.60620442  1
  H  H12  1  0.67597931  0.26446701  0.39991523  1
  H  H13  1  0.52260984  0.35234404  0.58167100  1
  H  H14  1  0.15036614  0.27377237  0.16022871  1
  H  H15  1  0.97404233  0.16992701  0.14127709  1
  H  H16  1  0.94847516  0.33552626  0.07639477  1
  H  H17  1  0.16400326  0.15765193  0.91658090  1
  H  H18  1  0.12879760  0.31091297  0.85460858  1
  H  H19  1  0.97166450  0.20509170  0.84426569  1
  H  H20  1  0.38193353  0.77807506  0.65341008  1
  H  H21  1  0.56258328  0.67640546  0.66749516  1
  H  H22  1  0.58526787  0.84259811  0.61312670  1
  H  H23  1  0.41765214  0.82344908  0.35450934  1
  H  H24  1  0.38605523  0.66945839  0.40251658  1
  H  H25  1  0.57820778  0.72066674  0.36732216  1
  H  H26  1  0.03715476  0.62273719  0.93611446  1
  H  H27  1  0.84806305  0.70541592  0.85596974  1
  H  H28  1  0.10607737  0.85649232  0.01596802  1
  H  H29  1  0.70959523  0.86304712  0.94539466  1
  H  H30  1  0.01447645  0.74672382  0.13983032  1
  H  H31  1  0.89083953  0.85499284  0.01868078  1
  N  N32  1  0.07334679  0.78243650  0.75409338  1
  N  N33  1  0.45939085  0.30663079  0.22268178  1
  Hf  Hf34  1  0.54160153  0.96480697  0.99653665  1
  Hf  Hf35  1  0.98666031  0.49096903  0.50684518  1
  Br  Br36  1  0.56498040  0.24826872  0.03299936  1
  Br  Br37  1  0.29331850  0.99720470  0.21058447  1
  Br  Br38  1  0.74765870  0.96752761  0.26195758  1
  Br  Br39  1  0.01260203  0.25324520  0.48776510  1
  Br  Br40  1  0.31350661  0.03356530  0.74727313  1
  Br  Br41  1  0.73285362  0.09760416  0.78570732  1
  Br  Br42  1  0.43239237  0.73797951  0.00921467  1
  Br  Br43  1  0.75831628  0.54687985  0.26381936  1
  Br  Br44  1  0.19724882  0.53579016  0.27543433  1
  Br  Br45  1  0.97507463  0.74636916  0.54346927  1
  Br  Br46  1  0.24006853  0.49256951  0.72983340  1
  Br  Br47  1  0.76372391  0.45845531  0.72308062  1
