# generated using pymatgen
data_SbH12C2(Br2N)3
_symmetry_space_group_name_H-M   'P 1'
_cell_length_a   8.51695591
_cell_length_b   10.06415600
_cell_length_c   8.05956264
_cell_angle_alpha   91.62858071
_cell_angle_beta   89.99310479
_cell_angle_gamma   89.99219903
_symmetry_Int_Tables_number   1
_chemical_formula_structural   SbH12C2(Br2N)3
_chemical_formula_sum   'Sb2 H24 C4 Br12 N6'
_cell_volume   690.55418748
_cell_formula_units_Z   2
loop_
 _symmetry_equiv_pos_site_id
 _symmetry_equiv_pos_as_xyz
  1  'x, y, z'
loop_
 _atom_site_type_symbol
 _atom_site_label
 _atom_site_symmetry_multiplicity
 _atom_site_fract_x
 _atom_site_fract_y
 _atom_site_fract_z
 _atom_site_occupancy
  C  C0  1  0.46135596  0.27337027  0.43598587  1
  C  C1  1  0.93647103  0.22411152  0.04252454  1
  C  C2  1  0.56313060  0.72407296  0.54267562  1
  C  C3  1  0.03921777  0.77321998  0.93630544  1
  N  N4  1  0.58078255  0.26902001  0.57003848  1
  N  N5  1  0.07326987  0.23023382  0.92872505  1
  N  N6  1  0.42640341  0.73023195  0.42881775  1
  N  N7  1  0.91948750  0.76910793  0.07010519  1
  H  H8  1  0.51856574  0.24648065  0.31874768  1
  H  H9  1  0.36700086  0.20340796  0.46237135  1
  H  H10  1  0.41582037  0.37450421  0.43097328  1
  H  H11  1  0.62449295  0.17379845  0.58753164  1
  H  H12  1  0.67573261  0.32897963  0.54381070  1
  H  H13  1  0.53546151  0.30303836  0.68306359  1
  H  H14  1  0.97695476  0.24436993  0.16944607  1
  H  H15  1  0.88637883  0.12445943  0.03183747  1
  H  H16  1  0.84984037  0.29815063  0.00689973  1
  H  H17  1  0.15753662  0.16274613  0.96559407  1
  H  H18  1  0.12487207  0.32348523  0.93330690  1
  H  H19  1  0.04295595  0.20925813  0.80550375  1
  H  H20  1  0.52251594  0.74407435  0.66961849  1
  H  H21  1  0.61340815  0.62448426  0.53176030  1
  H  H22  1  0.64965553  0.79826310  0.50729524  1
  H  H23  1  0.37468281  0.82345454  0.43354646  1
  H  H24  1  0.34219359  0.66265474  0.46552966  1
  H  H25  1  0.45681978  0.70941763  0.30557794  1
  H  H26  1  0.98239249  0.74571302  0.81908124  1
  H  H27  1  0.08437202  0.87443771  0.93075545  1
  H  H28  1  0.13376784  0.70361143  0.96335469  1
  H  H29  1  0.82444502  0.82880545  0.04329498  1
  H  H30  1  0.87597831  0.67387737  0.08801633  1
  H  H31  1  0.96445706  0.80358107  0.18306342  1
  N  N32  1  0.07409328  0.97251887  0.62740288  1
  N  N33  1  0.42590734  0.47228155  0.12695529  1
  Sb  Sb34  1  0.48941050  0.99538789  0.01424369  1
  Sb  Sb35  1  0.01053756  0.49553077  0.51411111  1
  Br  Br36  1  0.47158189  0.30817653  0.00169510  1
  Br  Br37  1  0.22402262  0.01092211  0.20578209  1
  Br  Br38  1  0.68523259  0.00223776  0.27285998  1
  Br  Br39  1  0.00795204  0.23427572  0.51436169  1
  Br  Br40  1  0.29731589  0.98842254  0.67256935  1
  Br  Br41  1  0.72693582  0.99884951  0.77392782  1
  Br  Br42  1  0.49201213  0.73411797  0.01448197  1
  Br  Br43  1  0.77308415  0.49907984  0.27373622  1
  Br  Br44  1  0.20273833  0.48816778  0.17249681  1
  Br  Br45  1  0.02834917  0.80847333  0.50207853  1
  Br  Br46  1  0.27579130  0.51078977  0.70574382  1
  Br  Br47  1  0.81463928  0.50242450  0.77269187  1
