# generated using pymatgen
data_InH12C2(Br2N)3
_symmetry_space_group_name_H-M   'P 1'
_cell_length_a   7.95850398
_cell_length_b   11.04054293
_cell_length_c   7.83030836
_cell_angle_alpha   92.52920049
_cell_angle_beta   89.98973842
_cell_angle_gamma   90.00572053
_symmetry_Int_Tables_number   1
_chemical_formula_structural   InH12C2(Br2N)3
_chemical_formula_sum   'In2 H24 C4 Br12 N6'
_cell_volume   687.34923758
_cell_formula_units_Z   2
loop_
 _symmetry_equiv_pos_site_id
 _symmetry_equiv_pos_as_xyz
  1  'x, y, z'
loop_
 _atom_site_type_symbol
 _atom_site_label
 _atom_site_symmetry_multiplicity
 _atom_site_fract_x
 _atom_site_fract_y
 _atom_site_fract_z
 _atom_site_occupancy
  C  C0  1  0.51280949  0.27275130  0.42167561  1
  C  C1  1  0.88831959  0.24157929  0.04900472  1
  C  C2  1  0.61192011  0.74162470  0.54901210  1
  C  C3  1  0.98712279  0.77277369  0.92149084  1
  N  N4  1  0.55847923  0.27677461  0.60554830  1
  N  N5  1  0.02347393  0.21843971  0.92112484  1
  N  N6  1  0.47672699  0.71824772  0.42129184  1
  N  N7  1  0.94128798  0.77673094  0.10533789  1
  H  H8  1  0.62375651  0.24567445  0.34721586  1
  H  H9  1  0.41244593  0.20599520  0.39929657  1
  H  H10  1  0.47127426  0.36289348  0.38634467  1
  H  H11  1  0.60445310  0.19388377  0.64425573  1
  H  H12  1  0.65008261  0.34224636  0.63601770  1
  H  H13  1  0.45717110  0.30059105  0.68317334  1
  H  H14  1  0.94580120  0.27863329  0.16647637  1
  H  H15  1  0.82679776  0.15568453  0.07400229  1
  H  H16  1  0.79866407  0.30618458  0.99945385  1
  H  H17  1  0.10675203  0.15418287  0.96622972  1
  H  H18  1  0.09071173  0.29638295  0.90050749  1
  H  H19  1  0.97777028  0.18651563  0.80321851  1
  H  H20  1  0.55446747  0.77880477  0.66644147  1
  H  H21  1  0.67351809  0.65580013  0.57418260  1
  H  H22  1  0.70149921  0.80620692  0.49921386  1
  H  H23  1  0.40955575  0.79615428  0.40034705  1
  H  H24  1  0.39339917  0.65411298  0.46669630  1
  H  H25  1  0.52242523  0.68604391  0.30351598  1
  H  H26  1  0.87622803  0.74573845  0.84695057  1
  H  H27  1  0.02873466  0.86292380  0.88624040  1
  H  H28  1  0.08747092  0.70601282  0.89912020  1
  H  H29  1  0.84971773  0.84222019  0.13581628  1
  H  H30  1  0.89521351  0.69383521  0.14394741  1
  H  H31  1  0.04254776  0.80046871  0.18305100  1
  N  N32  1  0.09118851  0.96491641  0.62301177  1
  N  N33  1  0.40881578  0.46508147  0.12331443  1
  In  In34  1  0.48231230  0.95192563  0.99576918  1
  In  In35  1  0.01756616  0.45191447  0.49586596  1
  Br  Br36  1  0.43224877  0.30451548  0.01378929  1
  Br  Br37  1  0.20996903  0.01658980  0.16175818  1
  Br  Br38  1  0.67824696  0.98755660  0.26636235  1
  Br  Br39  1  0.01232649  0.21832115  0.49187593  1
  Br  Br40  1  0.32259856  0.99444138  0.66738643  1
  Br  Br41  1  0.71529614  0.02377557  0.77676562  1
  Br  Br42  1  0.48750791  0.71835226  0.99185542  1
  Br  Br43  1  0.78462185  0.52365841  0.27680604  1
  Br  Br44  1  0.17737178  0.49452294  0.16760823  1
  Br  Br45  1  0.06791795  0.80435050  0.51343013  1
  Br  Br46  1  0.28985368  0.51649061  0.66201711  1
  Br  Br47  1  0.82158362  0.48755328  0.76647918  1
