# generated using pymatgen
data_AgH12C2(Br2N)3
_symmetry_space_group_name_H-M   'P 1'
_cell_length_a   8.12321391
_cell_length_b   10.33304259
_cell_length_c   8.15430033
_cell_angle_alpha   85.51411619
_cell_angle_beta   90.37455385
_cell_angle_gamma   90.26598142
_symmetry_Int_Tables_number   1
_chemical_formula_structural   AgH12C2(Br2N)3
_chemical_formula_sum   'Ag2 H24 C4 Br12 N6'
_cell_volume   682.33454448
_cell_formula_units_Z   2
loop_
 _symmetry_equiv_pos_site_id
 _symmetry_equiv_pos_as_xyz
  1  'x, y, z'
loop_
 _atom_site_type_symbol
 _atom_site_label
 _atom_site_symmetry_multiplicity
 _atom_site_fract_x
 _atom_site_fract_y
 _atom_site_fract_z
 _atom_site_occupancy
  C  C0  1  0.47655726  0.28112319  0.44271541  1
  C  C1  1  0.98639057  0.22236180  0.06016046  1
  C  C2  1  0.56391941  0.75074548  0.59152901  1
  C  C3  1  0.06252661  0.74886874  0.90902523  1
  N  N4  1  0.56454376  0.26081019  0.60203932  1
  N  N5  1  0.06395457  0.23574650  0.89598874  1
  N  N6  1  0.39389499  0.75339181  0.52352036  1
  N  N7  1  0.89272222  0.74621791  0.97550644  1
  H  H8  1  0.56634126  0.29554833  0.34386000  1
  H  H9  1  0.39967242  0.19564099  0.42630774  1
  H  H10  1  0.39867739  0.36683957  0.44629652  1
  H  H11  1  0.64175305  0.18037122  0.60854928  1
  H  H12  1  0.63615183  0.34032256  0.62996723  1
  H  H13  1  0.48245802  0.24234695  0.69773016  1
  H  H14  1  0.08247615  0.21848357  0.15461637  1
  H  H15  1  0.91337465  0.13292670  0.07004856  1
  H  H16  1  0.90579138  0.30590870  0.07132370  1
  H  H17  1  0.13919873  0.15769099  0.87373483  1
  H  H18  1  0.13519385  0.31995031  0.87693479  1
  H  H19  1  0.97550608  0.24239246  0.80395265  1
  H  H20  1  0.55652723  0.75904645  0.72441469  1
  H  H21  1  0.62324756  0.65964986  0.56605760  1
  H  H22  1  0.63311296  0.83344518  0.53501879  1
  H  H23  1  0.33544606  0.83860862  0.55154172  1
  H  H24  1  0.32703631  0.67358830  0.57500090  1
  H  H25  1  0.39439442  0.74821533  0.39682084  1
  H  H26  1  0.05465740  0.73995035  0.77621051  1
  H  H27  1  0.12263429  0.84020421  0.93447489  1
  H  H28  1  0.13124057  0.66651004  0.96675923  1
  H  H29  1  0.82664224  0.82603540  0.92321566  1
  H  H30  1  0.83346721  0.66085520  0.94734439  1
  H  H31  1  0.89382348  0.75173885  0.10215077  1
  N  N32  1  0.48710947  0.03690271  0.08696070  1
  N  N33  1  0.98586670  0.46396080  0.41298660  1
  Ag  Ag34  1  0.01002987  0.00296791  0.57414279  1
  Ag  Ag35  1  0.51269321  0.49683560  0.92466138  1
  Br  Br36  1  0.48320501  0.23457118  0.02332143  1
  Br  Br37  1  0.28180836  0.98300539  0.20168392  1
  Br  Br38  1  0.67206469  0.99355418  0.23504594  1
  Br  Br39  1  0.98047912  0.26583295  0.47442461  1
  Br  Br40  1  0.30201721  0.01940472  0.70770307  1
  Br  Br41  1  0.76928205  0.01806073  0.77752129  1
  Br  Br42  1  0.49062096  0.66281647  0.14746863  1
  Br  Br43  1  0.78024974  0.51791491  0.29746902  1
  Br  Br44  1  0.17044141  0.50896401  0.26646198  1
  Br  Br45  1  0.99391967  0.83754611  0.35084052  1
  Br  Br46  1  0.26544686  0.48361518  0.72513210  1
  Br  Br47  1  0.80145547  0.47858965  0.79165583  1
