# generated using pymatgen
data_H12RhC2(Br2N)3
_symmetry_space_group_name_H-M   'P 1'
_cell_length_a   7.96575321
_cell_length_b   12.06396024
_cell_length_c   6.74813776
_cell_angle_alpha   95.26986522
_cell_angle_beta   90.92187226
_cell_angle_gamma   89.60810996
_symmetry_Int_Tables_number   1
_chemical_formula_structural   H12RhC2(Br2N)3
_chemical_formula_sum   'H24 Rh2 C4 Br12 N6'
_cell_volume   645.65211520
_cell_formula_units_Z   2
loop_
 _symmetry_equiv_pos_site_id
 _symmetry_equiv_pos_as_xyz
  1  'x, y, z'
loop_
 _atom_site_type_symbol
 _atom_site_label
 _atom_site_symmetry_multiplicity
 _atom_site_fract_x
 _atom_site_fract_y
 _atom_site_fract_z
 _atom_site_occupancy
  C  C0  1  0.43410017  0.21654165  0.44780930  1
  C  C1  1  0.94096358  0.28291064  0.05201492  1
  C  C2  1  0.55821358  0.79375153  0.54966522  1
  C  C3  1  0.05375346  0.70684175  0.94809784  1
  N  N4  1  0.61275339  0.23373783  0.50306891  1
  N  N5  1  0.11897868  0.26609134  0.99864705  1
  N  N6  1  0.41727102  0.71553802  0.50494184  1
  N  N7  1  0.91259719  0.78492698  0.99445359  1
  H  H8  1  0.42368256  0.19294367  0.28777334  1
  H  H9  1  0.38453971  0.15047559  0.53029311  1
  H  H10  1  0.36479005  0.29384925  0.48610517  1
  H  H11  1  0.68674469  0.16910370  0.43960808  1
  H  H12  1  0.66136746  0.31030718  0.46424720  1
  H  H13  1  0.62656262  0.23643437  0.65703897  1
  H  H14  1  0.93300493  0.30725001  0.21162123  1
  H  H15  1  0.87308253  0.20515511  0.01479053  1
  H  H16  1  0.88772277  0.34810940  0.96763055  1
  H  H17  1  0.16958681  0.18930405  0.03764465  1
  H  H18  1  0.19287210  0.33087553  0.06238469  1
  H  H19  1  0.12961029  0.26331127  0.84475539  1
  H  H20  1  0.54195122  0.83806331  0.69642814  1
  H  H21  1  0.67585566  0.74634143  0.54738837  1
  H  H22  1  0.56213983  0.85301602  0.43630007  1
  H  H23  1  0.29956520  0.75426760  0.51197009  1
  H  H24  1  0.41201141  0.65175023  0.59945926  1
  H  H25  1  0.42526975  0.67749578  0.36085786  1
  H  H26  1  0.03412606  0.66317357  0.80088746  1
  H  H27  1  0.17045858  0.75424894  0.95034642  1
  H  H28  1  0.06229391  0.64705662  0.06052229  1
  H  H29  1  0.90440462  0.84999664  0.90227134  1
  H  H30  1  0.79534398  0.74640293  0.98599463  1
  H  H31  1  0.92375304  0.82132395  0.13972156  1
  N  N32  1  0.28230061  0.06178723  0.02804612  1
  N  N33  1  0.77944852  0.43566086  0.47727763  1
  Rh  Rh34  1  0.01195535  0.00422490  0.51039059  1
  Rh  Rh35  1  0.51330289  0.49652610  0.98899026  1
  Br  Br36  1  0.53003123  0.28977926  0.97307206  1
  Br  Br37  1  0.23160761  0.96416192  0.23012886  1
  Br  Br38  1  0.77094265  0.00606983  0.26925698  1
  Br  Br39  1  0.02556459  0.21065728  0.53005659  1
  Br  Br40  1  0.26005008  0.98973151  0.76434047  1
  Br  Br41  1  0.80764597  0.01445463  0.78033223  1
  Br  Br42  1  0.51060758  0.70823558  0.01855591  1
  Br  Br43  1  0.73611409  0.53373925  0.27220765  1
  Br  Br44  1  0.27702062  0.49571558  0.22672682  1
  Br  Br45  1  0.01244861  0.79253258  0.47948601  1
  Br  Br46  1  0.30369889  0.48667629  0.71682676  1
  Br  Br47  1  0.75791357  0.50952955  0.73986257  1
