# generated using pymatgen
data_NbH12C2(Br2N)3
_symmetry_space_group_name_H-M   'P 1'
_cell_length_a   8.58781208
_cell_length_b   9.17587062
_cell_length_c   8.66524427
_cell_angle_alpha   91.40245671
_cell_angle_beta   89.94894025
_cell_angle_gamma   89.98727312
_symmetry_Int_Tables_number   1
_chemical_formula_structural   NbH12C2(Br2N)3
_chemical_formula_sum   'Nb2 H24 C4 Br12 N6'
_cell_volume   682.62206452
_cell_formula_units_Z   2
loop_
 _symmetry_equiv_pos_site_id
 _symmetry_equiv_pos_as_xyz
  1  'x, y, z'
loop_
 _atom_site_type_symbol
 _atom_site_label
 _atom_site_symmetry_multiplicity
 _atom_site_fract_x
 _atom_site_fract_y
 _atom_site_fract_z
 _atom_site_occupancy
  C  C0  1  0.49225758  0.28337197  0.43770714  1
  C  C1  1  0.97261630  0.24385464  0.04475425  1
  C  C2  1  0.52689105  0.74361484  0.54483963  1
  C  C3  1  0.00802890  0.78293657  0.93801410  1
  N  N4  1  0.52463280  0.27943083  0.60495520  1
  N  N5  1  0.02110977  0.22905192  0.88093942  1
  N  N6  1  0.47840847  0.72882933  0.38110531  1
  N  N7  1  0.97655198  0.78023456  0.10555804  1
  H  H8  1  0.60049747  0.26682697  0.37351178  1
  H  H9  1  0.40821755  0.19777076  0.40724455  1
  H  H10  1  0.44123626  0.38918156  0.41193695  1
  H  H11  1  0.56490055  0.17855696  0.63937696  1
  H  H12  1  0.61092081  0.35419127  0.63965399  1
  H  H13  1  0.42559703  0.30396777  0.66843058  1
  H  H14  1  0.06850391  0.28933334  0.11331604  1
  H  H15  1  0.94108996  0.13644442  0.08682927  1
  H  H16  1  0.87040498  0.31482105  0.05248558  1
  H  H17  1  0.11910762  0.16279571  0.86421308  1
  H  H18  1  0.04531722  0.32855002  0.83269038  1
  H  H19  1  0.93146206  0.18275956  0.81540040  1
  H  H20  1  0.43112925  0.78944731  0.61351884  1
  H  H21  1  0.55806431  0.63614162  0.58696945  1
  H  H22  1  0.62932872  0.81425750  0.55233797  1
  H  H23  1  0.45462610  0.82836665  0.33277753  1
  H  H24  1  0.38025920  0.66282954  0.36451806  1
  H  H25  1  0.56800878  0.68224220  0.31552492  1
  H  H26  1  0.89947112  0.76583910  0.87471076  1
  H  H27  1  0.05870239  0.88858426  0.91097333  1
  H  H28  1  0.09206464  0.69720848  0.90768920  1
  H  H29  1  0.88986427  0.85474480  0.14007569  1
  H  H30  1  0.93714973  0.67943550  0.14112786  1
  H  H31  1  0.07573721  0.80596512  0.16813452  1
  N  N32  1  0.91060409  0.70403185  0.60812932  1
  N  N33  1  0.58944927  0.20408074  0.10775385  1
  Nb  Nb34  1  0.50580009  0.03570209  0.01172693  1
  Nb  Nb35  1  0.99391134  0.53551034  0.51187049  1
  Br  Br36  1  0.44911228  0.32762359  0.98596636  1
  Br  Br37  1  0.26829327  0.01558919  0.19880290  1
  Br  Br38  1  0.70429825  0.98635702  0.25252606  1
  Br  Br39  1  0.97855308  0.24908166  0.49718968  1
  Br  Br40  1  0.30930591  0.01569714  0.77597771  1
  Br  Br41  1  0.71743723  0.02557901  0.79411072  1
  Br  Br42  1  0.51996251  0.74918674  0.99736721  1
  Br  Br43  1  0.78278211  0.52637798  0.29406730  1
  Br  Br44  1  0.19068365  0.51516126  0.27603448  1
  Br  Br45  1  0.05124339  0.82741300  0.48627320  1
  Br  Br46  1  0.23137420  0.51450576  0.69842210  1
  Br  Br47  1  0.79505509  0.48659478  0.75275750  1
