# generated using pymatgen
data_ZrH12C2(Br2N)3
_symmetry_space_group_name_H-M   'P 1'
_cell_length_a   8.27868636
_cell_length_b   10.01099057
_cell_length_c   8.26056355
_cell_angle_alpha   91.79049415
_cell_angle_beta   85.79020147
_cell_angle_gamma   89.58123916
_symmetry_Int_Tables_number   1
_chemical_formula_structural   ZrH12C2(Br2N)3
_chemical_formula_sum   'Zr2 H24 C4 Br12 N6'
_cell_volume   682.40559244
_cell_formula_units_Z   2
loop_
 _symmetry_equiv_pos_site_id
 _symmetry_equiv_pos_as_xyz
  1  'x, y, z'
loop_
 _atom_site_type_symbol
 _atom_site_label
 _atom_site_symmetry_multiplicity
 _atom_site_fract_x
 _atom_site_fract_y
 _atom_site_fract_z
 _atom_site_occupancy
  C  C0  1  0.48556246  0.29229468  0.43489099  1
  C  C1  1  0.98778988  0.24565079  0.06447129  1
  C  C2  1  0.50456524  0.72123354  0.54750734  1
  C  C3  1  0.00732809  0.78320138  0.97773025  1
  N  N4  1  0.54794266  0.26207601  0.59326479  1
  N  N5  1  -0.01295570  0.22752935  0.88612539  1
  N  N6  1  0.45659532  0.75741948  0.38460393  1
  N  N7  1  0.97232834  0.80131478  0.15555983  1
  H  H8  1  0.58556399  0.28533319  0.34131910  1
  H  H9  1  0.39211118  0.21960261  0.40806544  1
  H  H10  1  0.43364095  0.39312314  0.44235334  1
  H  H11  1  0.60410743  0.16918662  0.59254355  1
  H  H12  1  0.63146058  0.33243573  0.62919789  1
  H  H13  1  0.45531274  0.26097041  0.68424848  1
  H  H14  1  0.10926394  0.27049392  0.09875920  1
  H  H15  1  0.94743358  0.15285023  0.12014542  1
  H  H16  1  0.90208887  0.32593313  0.10402375  1
  H  H17  1  0.06667206  0.15220697  0.84137133  1
  H  H18  1  0.02310168  0.31341169  0.82784425  1
  H  H19  1  0.86515970  0.20346904  0.86088555  1
  H  H20  1  0.41565953  0.76258129  0.64032321  1
  H  H21  1  0.50876034  0.61237433  0.55299555  1
  H  H22  1  0.62598484  0.76094324  0.56262021  1
  H  H23  1  0.42518564  0.85744776  0.37768178  1
  H  H24  1  0.35962155  0.70051204  0.34915526  1
  H  H25  1  0.54927495  0.73982014  0.29530438  1
  H  H26  1  0.89494875  0.75707518  0.92271585  1
  H  H27  1  0.05585324  0.87661964  0.92963122  1
  H  H28  1  0.09767560  0.70319226  0.95331911  1
  H  H29  1  0.87908310  0.87130136  0.18561415  1
  H  H30  1  0.93574445  0.71266426  0.20851213  1
  H  H31  1  0.07316674  0.83799673  0.20937753  1
  N  N32  1  0.85625327  0.85123320  0.50995418  1
  N  N33  1  0.66063194  0.15635288  0.89584458  1
  Zr  Zr34  1  0.51684039  0.01175355  0.98693489  1
  Zr  Zr35  1  0.00616778  0.48922894  0.50311752  1
  Br  Br36  1  0.52310056  0.29336718  0.00394372  1
  Br  Br37  1  0.26217154  0.01537848  0.21009791  1
  Br  Br38  1  0.68402448  0.01758431  0.25548959  1
  Br  Br39  1  0.00388539  0.23818600  0.47253120  1
  Br  Br40  1  0.30573995  0.02593330  0.75381199  1
  Br  Br41  1  0.78548966  0.98083673  0.67547419  1
  Br  Br42  1  0.54389886  0.75062519  0.97346527  1
  Br  Br43  1  0.78073181  0.53405841  0.30011704  1
  Br  Br44  1  0.21891963  0.52206048  0.24887457  1
  Br  Br45  1  0.05365893  0.76361577  0.56725389  1
  Br  Br46  1  0.22798537  0.48304614  0.71881963  1
  Br  Br47  1  0.78449246  0.50455287  0.74240495  1
