# generated using pymatgen
data_BeSiH12C2(I3N)2
_symmetry_space_group_name_H-M   'P 1'
_cell_length_a   8.62291567
_cell_length_b   11.95709700
_cell_length_c   8.33656193
_cell_angle_alpha   89.68697164
_cell_angle_beta   90.21492678
_cell_angle_gamma   90.16965458
_symmetry_Int_Tables_number   1
_chemical_formula_structural   BeSiH12C2(I3N)2
_chemical_formula_sum   'Be2 Si2 H24 C4 I12 N4'
_cell_volume   859.51895165
_cell_formula_units_Z   2
loop_
 _symmetry_equiv_pos_site_id
 _symmetry_equiv_pos_as_xyz
  1  'x, y, z'
loop_
 _atom_site_type_symbol
 _atom_site_label
 _atom_site_symmetry_multiplicity
 _atom_site_fract_x
 _atom_site_fract_y
 _atom_site_fract_z
 _atom_site_occupancy
  C  C0  1  0.44332370  0.24961007  0.44178009  1
  C  C1  1  0.94546425  0.25287779  0.06642523  1
  C  C2  1  0.56358267  0.75084218  0.56146738  1
  C  C3  1  0.05855662  0.74492228  0.93975700  1
  N  N4  1  0.58502379  0.24863749  0.54353925  1
  N  N5  1  0.08847780  0.25028043  0.96755675  1
  N  N6  1  0.41831340  0.74985063  0.46483366  1
  N  N7  1  0.91242424  0.75180095  0.03266018  1
  H  H8  1  0.47821066  0.24968838  0.31559126  1
  H  H9  1  0.37530895  0.17437064  0.46808861  1
  H  H10  1  0.37546932  0.32429580  0.46910647  1
  H  H11  1  0.65132973  0.17827084  0.51770225  1
  H  H12  1  0.65429562  0.31801037  0.52077579  1
  H  H13  1  0.55918854  0.24774528  0.66609886  1
  H  H14  1  0.97889075  0.25421604  0.19322442  1
  H  H15  1  0.87649977  0.17818191  0.04053671  1
  H  H16  1  0.88002990  0.32839041  0.03592247  1
  H  H17  1  0.15587555  0.18120170  0.99772669  1
  H  H18  1  0.15586278  0.32075355  0.98755849  1
  H  H19  1  0.06363367  0.24648961  0.84474680  1
  H  H20  1  0.53258451  0.75037249  0.68866513  1
  H  H21  1  0.63060080  0.67601241  0.53277525  1
  H  H22  1  0.62926070  0.82658227  0.53191974  1
  H  H23  1  0.34940519  0.81792806  0.49278052  1
  H  H24  1  0.35371983  0.67831193  0.48904432  1
  H  H25  1  0.44049813  0.75284266  0.34168584  1
  H  H26  1  0.02932755  0.73817247  0.81228633  1
  H  H27  1  0.12441391  0.82174240  0.96063939  1
  H  H28  1  0.12450079  0.67167860  0.97950768  1
  H  H29  1  0.84960391  0.82206910  0.99746628  1
  H  H30  1  0.84368666  0.68181530  0.00951004  1
  H  H31  1  0.93293626  0.75662591  0.15581357  1
  Be  Be32  1  0.36635639  0.93259987  0.98754519  1
  Be  Be33  1  0.96984519  0.55546080  0.34547772  1
  Si  Si34  1  0.96485097  0.01869834  0.53139918  1
  Si  Si35  1  0.51445881  0.48546413  0.95196715  1
  I  I36  1  0.51240762  0.26187086  0.96263903  1
  I  I37  1  0.23134163  0.01302395  0.19464409  1
  I  I38  1  0.72692435  0.01847584  0.32283908  1
  I  I39  1  0.00633980  0.24005270  0.54913026  1
  I  I40  1  0.32645637  0.98823429  0.72625835  1
  I  I41  1  0.80987080  0.99587452  0.80403363  1
  I  I42  1  0.50027819  0.76995666  0.04626644  1
  I  I43  1  0.72171858  0.48855680  0.31161737  1
  I  I44  1  0.18913134  0.48635121  0.22563941  1
  I  I45  1  0.99926568  0.73134902  0.45894166  1
  I  I46  1  0.31409942  0.50620970  0.70805210  1
  I  I47  1  0.78637866  0.51330962  0.80665349  1
