# generated using pymatgen
data_YH12C2(Br2N)3
_symmetry_space_group_name_H-M   'P 1'
_cell_length_a   8.75550219
_cell_length_b   9.80934714
_cell_length_c   8.29870312
_cell_angle_alpha   97.96417753
_cell_angle_beta   89.94326136
_cell_angle_gamma   89.99433516
_symmetry_Int_Tables_number   1
_chemical_formula_structural   YH12C2(Br2N)3
_chemical_formula_sum   'Y2 H24 C4 Br12 N6'
_cell_volume   705.86560107
_cell_formula_units_Z   2
loop_
 _symmetry_equiv_pos_site_id
 _symmetry_equiv_pos_as_xyz
  1  'x, y, z'
loop_
 _atom_site_type_symbol
 _atom_site_label
 _atom_site_symmetry_multiplicity
 _atom_site_fract_x
 _atom_site_fract_y
 _atom_site_fract_z
 _atom_site_occupancy
  C  C0  1  0.51870549  0.28250081  0.44884021  1
  C  C1  1  0.93543385  0.20839124  0.01785797  1
  C  C2  1  0.56397525  0.70774124  0.51850574  1
  C  C3  1  0.98186378  0.78292622  0.94862641  1
  N  N4  1  0.53774829  0.29517302  0.62730187  1
  N  N5  1  0.04740658  0.20997246  0.88292244  1
  N  N6  1  0.45287505  0.70957433  0.38302733  1
  N  N7  1  0.96300038  0.79559618  0.12715115  1
  H  H8  1  0.63053633  0.26383437  0.39120893  1
  H  H9  1  0.44158925  0.19647765  0.40907991  1
  H  H10  1  0.46746046  0.37639013  0.41513767  1
  H  H11  1  0.57085435  0.20221759  0.66472722  1
  H  H12  1  0.62382670  0.36573806  0.66836035  1
  H  H13  1  0.43789286  0.33062080  0.68575150  1
  H  H14  1  0.97989775  0.26908830  0.12805427  1
  H  H15  1  0.91786538  0.10252074  0.04059244  1
  H  H16  1  0.82758491  0.25228180  0.98327279  1
  H  H17  1  0.15715834  0.21568367  0.92858803  1
  H  H18  1  0.02961854  0.29405417  0.82262938  1
  H  H19  1  0.04386345  0.11820683  0.79328692  1
  H  H20  1  0.51890428  0.76829456  0.62860244  1
  H  H21  1  0.58133697  0.60181461  0.54109998  1
  H  H22  1  0.67209118  0.75166251  0.48457673  1
  H  H23  1  0.47194505  0.79321218  0.32226864  1
  H  H24  1  0.34286556  0.71634574  0.42816221  1
  H  H25  1  0.45612135  0.61747356  0.29380598  1
  H  H26  1  0.86998193  0.76431560  0.89134518  1
  H  H27  1  0.03300880  0.87681498  0.91474924  1
  H  H28  1  0.05893097  0.69685632  0.90859187  1
  H  H29  1  0.87673528  0.86598500  0.16840146  1
  H  H30  1  0.93012738  0.70260563  0.16468124  1
  H  H31  1  0.06278757  0.83123240  0.18534527  1
  N  N32  1  0.10540229  0.95640147  0.71101627  1
  N  N33  1  0.39464038  0.45578867  0.21169444  1
  Y  Y34  1  0.49428579  0.97987350  0.00100110  1
  Y  Y35  1  0.00506879  0.47970150  0.50094187  1
  Br  Br36  1  0.47034814  0.33161483  0.02915998  1
  Br  Br37  1  0.23695925  0.02793399  0.17520251  1
  Br  Br38  1  0.67818688  0.99013744  0.26636406  1
  Br  Br39  1  0.99327087  0.21078392  0.46722229  1
  Br  Br40  1  0.32060729  0.99327423  0.68286600  1
  Br  Br41  1  0.69298158  0.02774606  0.75864383  1
  Br  Br42  1  0.50368871  0.71086866  0.96732248  1
  Br  Br43  1  0.80719875  0.52850019  0.25858532  1
  Br  Br44  1  0.17960841  0.49296665  0.18308308  1
  Br  Br45  1  0.03054065  0.83159519  0.52879751  1
  Br  Br46  1  0.26226098  0.52601615  0.67520935  1
  Br  Br47  1  0.82098164  0.49127313  0.76663378  1
