# generated using pymatgen
data_AsH12C2(Br2N)3
_symmetry_space_group_name_H-M   'P 1'
_cell_length_a   8.51107964
_cell_length_b   9.77345575
_cell_length_c   8.12170608
_cell_angle_alpha   92.96153106
_cell_angle_beta   90.02353540
_cell_angle_gamma   89.98717335
_symmetry_Int_Tables_number   1
_chemical_formula_structural   AsH12C2(Br2N)3
_chemical_formula_sum   'As2 H24 C4 Br12 N6'
_cell_volume   674.68276730
_cell_formula_units_Z   2
loop_
 _symmetry_equiv_pos_site_id
 _symmetry_equiv_pos_as_xyz
  1  'x, y, z'
loop_
 _atom_site_type_symbol
 _atom_site_label
 _atom_site_symmetry_multiplicity
 _atom_site_fract_x
 _atom_site_fract_y
 _atom_site_fract_z
 _atom_site_occupancy
  C  C0  1  0.45985781  0.23407981  0.44427649  1
  C  C1  1  0.95914384  0.26665467  0.05589185  1
  C  C2  1  0.54783153  0.77232810  0.56055645  1
  C  C3  1  0.04715314  0.72819830  0.93972242  1
  N  N4  1  0.59286941  0.23675829  0.56242147  1
  N  N5  1  0.09281928  0.26248451  0.93862198  1
  N  N6  1  0.40109463  0.75749729  0.46256305  1
  N  N7  1  0.90079289  0.74307061  0.03825828  1
  H  H8  1  0.50641226  0.24052031  0.31946909  1
  H  H9  1  0.39639540  0.13773383  0.45449003  1
  H  H10  1  0.38155573  0.32007412  0.47532524  1
  H  H11  1  0.67282164  0.16038790  0.52808970  1
  H  H12  1  0.65343649  0.32901892  0.56681339  1
  H  H13  1  0.55681511  0.22180517  0.68265805  1
  H  H14  1  0.00497996  0.26055611  0.18108747  1
  H  H15  1  0.88023361  0.18107019  0.02498578  1
  H  H16  1  0.89666323  0.36337199  0.04459440  1
  H  H17  1  0.15275405  0.16995450  0.93553274  1
  H  H18  1  0.17313062  0.33858294  0.97294539  1
  H  H19  1  0.05754229  0.27696604  0.81800061  1
  H  H20  1  0.51977674  0.80946251  0.68648930  1
  H  H21  1  0.60902189  0.67443773  0.56371647  1
  H  H22  1  0.62387542  0.84690383  0.50376190  1
  H  H23  1  0.30889740  0.80074694  0.52977304  1
  H  H24  1  0.37237355  0.65745832  0.42945636  1
  H  H25  1  0.41072328  0.81711492  0.34818470  1
  H  H26  1  0.01851574  0.69257199  0.81336987  1
  H  H27  1  0.10912852  0.82577140  0.93790302  1
  H  H28  1  0.12276018  0.65253290  0.99520249  1
  H  H29  1  0.87453504  0.84286680  0.07541113  1
  H  H30  1  0.80736433  0.70342927  0.97006010  1
  H  H31  1  0.90937868  0.68044889  0.15074452  1
  N  N32  1  0.43023303  0.92067027  0.20738813  1
  N  N33  1  0.92804479  0.57684807  0.29039222  1
  As  As34  1  0.00036756  0.00947242  0.51507679  1
  As  As35  1  0.50019067  0.49038649  0.98372863  1
  Br  Br36  1  0.51673542  0.23582281  0.97815900  1
  Br  Br37  1  0.21406157  0.98831690  0.19890202  1
  Br  Br38  1  0.77621587  0.01273025  0.29461815  1
  Br  Br39  1  0.01668995  0.26369139  0.52129238  1
  Br  Br40  1  0.25180254  0.99746278  0.71101961  1
  Br  Br41  1  0.82133634  0.99671592  0.75252074  1
  Br  Br42  1  0.48203612  0.80604700  0.01589085  1
  Br  Br43  1  0.71116638  0.51165714  0.30046543  1
  Br  Br44  1  0.27661336  0.48750438  0.20475656  1
  Br  Br45  1  0.98206310  0.69222816  0.48086788  1
  Br  Br46  1  0.32017161  0.50273515  0.74660070  1
  Br  Br47  1  0.75164173  0.50293007  0.78824073  1
