# generated using pymatgen
data_GaH12C2(Br2N)3
_symmetry_space_group_name_H-M   'P 1'
_cell_length_a   8.89438826
_cell_length_b   9.74011089
_cell_length_c   8.24333825
_cell_angle_alpha   98.07074539
_cell_angle_beta   90.05045634
_cell_angle_gamma   90.08783324
_symmetry_Int_Tables_number   1
_chemical_formula_structural   GaH12C2(Br2N)3
_chemical_formula_sum   'Ga2 H24 C4 Br12 N6'
_cell_volume   707.06510294
_cell_formula_units_Z   2
loop_
 _symmetry_equiv_pos_site_id
 _symmetry_equiv_pos_as_xyz
  1  'x, y, z'
loop_
 _atom_site_type_symbol
 _atom_site_label
 _atom_site_symmetry_multiplicity
 _atom_site_fract_x
 _atom_site_fract_y
 _atom_site_fract_z
 _atom_site_occupancy
  C  C0  1  0.50606269  0.27156321  0.48977061  1
  C  C1  1  0.95607630  0.20567859  0.01463510  1
  C  C2  1  0.54512719  0.70619657  0.51471272  1
  C  C3  1  0.99253329  0.77153297  0.99017476  1
  N  N4  1  0.45841341  0.32102653  0.66111319  1
  N  N5  1  0.00995830  0.20138605  0.84602079  1
  N  N6  1  0.49125264  0.70163408  0.34596792  1
  N  N7  1  0.03983102  0.82064181  0.16186643  1
  H  H8  1  0.62612802  0.24689054  0.48883425  1
  H  H9  1  0.44030357  0.17966113  0.44199976  1
  H  H10  1  0.48160508  0.35304264  0.41459432  1
  H  H11  1  0.45566659  0.24039380  0.73083867  1
  H  H12  1  0.53574742  0.39274622  0.71697010  1
  H  H13  1  0.35411683  0.36987896  0.66344615  1
  H  H14  1  0.05183818  0.21532551  0.09859979  1
  H  H15  1  0.89555026  0.10965139  0.02764819  1
  H  H16  1  0.87997066  0.29335540  0.05379928  1
  H  H17  1  0.06757947  0.04863294  0.75407075  1
  H  H18  1  0.08926503  0.27704668  0.84083762  1
  H  H19  1  0.92431454  0.22406227  0.77099938  1
  H  H20  1  0.44934869  0.71500214  0.59839650  1
  H  H21  1  0.60621255  0.61062271  0.52779065  1
  H  H22  1  0.62069120  0.79449088  0.55424480  1
  H  H23  1  0.41176786  0.77694352  0.34053692  1
  H  H24  1  0.43324193  0.54882272  0.25375426  1
  H  H25  1  0.57678457  0.72460206  0.27109816  1
  H  H26  1  0.87233252  0.74695641  0.98840998  1
  H  H27  1  0.01775118  0.85310933  0.91534241  1
  H  H28  1  0.05795882  0.67961379  0.94254703  1
  H  H29  1  0.96294577  0.89270026  0.21729129  1
  H  H30  1  0.04146767  0.73991757  0.23152154  1
  H  H31  1  0.14460846  0.86896560  0.16487025  1
  N  N32  1  0.10725554  0.94256450  0.71245360  1
  N  N33  1  0.39254064  0.44299990  0.21201677  1
  Ga  Ga34  1  0.53704229  0.95459192  0.01616754  1
  Ga  Ga35  1  0.96380395  0.45433239  0.51605446  1
  Br  Br36  1  0.54909331  0.36108275  0.06860095  1
  Br  Br37  1  0.30602312  0.05585534  0.11183145  1
  Br  Br38  1  0.70238775  0.98540536  0.24667707  1
  Br  Br39  1  0.00805167  0.21737284  0.43840957  1
  Br  Br40  1  0.28458308  0.97713501  0.59232541  1
  Br  Br41  1  0.64472525  0.05476741  0.79778098  1
  Br  Br42  1  0.49618501  0.71702614  0.93816014  1
  Br  Br43  1  0.85495130  0.55308675  0.29726133  1
  Br  Br44  1  0.21544164  0.47872132  0.09201674  1
  Br  Br45  1  0.94947926  0.86163091  0.56939680  1
  Br  Br46  1  0.19393541  0.55796440  0.61261060  1
  Br  Br47  1  0.79807285  0.48344705  0.74582961  1
