# generated using pymatgen
data_TiH12C2(Br2N)3
_symmetry_space_group_name_H-M   'P 1'
_cell_length_a   8.24256604
_cell_length_b   10.10179060
_cell_length_c   8.04132920
_cell_angle_alpha   86.85673101
_cell_angle_beta   92.56864950
_cell_angle_gamma   89.89443575
_symmetry_Int_Tables_number   1
_chemical_formula_structural   TiH12C2(Br2N)3
_chemical_formula_sum   'Ti2 H24 C4 Br12 N6'
_cell_volume   667.87341413
_cell_formula_units_Z   2
loop_
 _symmetry_equiv_pos_site_id
 _symmetry_equiv_pos_as_xyz
  1  'x, y, z'
loop_
 _atom_site_type_symbol
 _atom_site_label
 _atom_site_symmetry_multiplicity
 _atom_site_fract_x
 _atom_site_fract_y
 _atom_site_fract_z
 _atom_site_occupancy
  C  C0  1  0.50389326  0.25897460  0.41028703  1
  C  C1  1  0.93746361  0.22003633  0.03986186  1
  C  C2  1  0.56697224  0.71724715  0.53809701  1
  C  C3  1  0.00317792  0.76751237  0.91709178  1
  N  N4  1  0.56760143  0.27117298  0.58402138  1
  N  N5  1  0.07504667  0.25292363  0.93466184  1
  N  N6  1  0.41971551  0.75419603  0.43981468  1
  N  N7  1  0.93970513  0.76557668  0.08691997  1
  H  H8  1  0.60223319  0.22393330  0.33719394  1
  H  H9  1  0.40442050  0.18731267  0.41015977  1
  H  H10  1  0.46271041  0.35704194  0.35811151  1
  H  H11  1  0.61574664  0.18207111  0.63759994  1
  H  H12  1  0.65885128  0.34152671  0.59213745  1
  H  H13  1  0.47835912  0.29946587  0.66157580  1
  H  H14  1  0.95067419  0.26781712  0.15841314  1
  H  H15  1  0.93315954  0.11262901  0.06353043  1
  H  H16  1  0.82419281  0.25360501  0.97461250  1
  H  H17  1  0.18632610  0.24182126  0.99853977  1
  H  H18  1  0.06691259  0.34905742  0.88506617  1
  H  H19  1  0.07631694  0.18380828  0.82688131  1
  H  H20  1  0.57803367  0.76187669  0.66007615  1
  H  H21  1  0.57196512  0.60913401  0.56042846  1
  H  H22  1  0.67305924  0.74680288  0.46793726  1
  H  H23  1  0.42812306  0.84670197  0.38279556  1
  H  H24  1  0.32079324  0.75538213  0.51189575  1
  H  H25  1  0.39869151  0.61673117  0.30051888  1
  H  H26  1  0.90385450  0.74341206  0.82982009  1
  H  H27  1  0.04880998  0.86683020  0.88531820  1
  H  H28  1  0.10162155  0.69463900  0.91584519  1
  H  H29  1  0.84462980  0.83254054  0.09485791  1
  H  H30  1  0.89640791  0.67301629  0.12635119  1
  H  H31  1  0.02854242  0.79174998  0.17426613  1
  N  N32  1  0.06779643  0.08714642  0.68785568  1
  N  N33  1  0.38957656  0.53174486  0.22802921  1
  Ti  Ti34  1  0.49377569  0.99172701  0.00960638  1
  Ti  Ti35  1  0.01557519  0.52466044  0.51022877  1
  Br  Br36  1  0.48377195  0.24238463  0.98737356  1
  Br  Br37  1  0.23965896  0.99656361  0.16620164  1
  Br  Br38  1  0.68750896  0.97992391  0.24648550  1
  Br  Br39  1  0.02047658  0.20989740  0.49950849  1
  Br  Br40  1  0.28839128  0.01794274  0.68523699  1
  Br  Br41  1  0.70010716  0.99887670  0.78606061  1
  Br  Br42  1  0.46595138  0.75683134  0.97642248  1
  Br  Br43  1  0.79601755  0.48372085  0.29730291  1
  Br  Br44  1  0.17189022  0.49546723  0.23625049  1
  Br  Br45  1  0.00885858  0.76323360  0.49809894  1
  Br  Br46  1  0.26758128  0.48843047  0.67439961  1
  Br  Br47  1  0.83507489  0.48498066  0.74654730  1
