# generated using pymatgen
data_ScH12C2(Br2N)3
_symmetry_space_group_name_H-M   'P 1'
_cell_length_a   8.30941397
_cell_length_b   10.35887605
_cell_length_c   8.00705691
_cell_angle_alpha   95.56002338
_cell_angle_beta   90.03601555
_cell_angle_gamma   89.98381259
_symmetry_Int_Tables_number   1
_chemical_formula_structural   ScH12C2(Br2N)3
_chemical_formula_sum   'Sc2 H24 C4 Br12 N6'
_cell_volume   685.97419724
_cell_formula_units_Z   2
loop_
 _symmetry_equiv_pos_site_id
 _symmetry_equiv_pos_as_xyz
  1  'x, y, z'
loop_
 _atom_site_type_symbol
 _atom_site_label
 _atom_site_symmetry_multiplicity
 _atom_site_fract_x
 _atom_site_fract_y
 _atom_site_fract_z
 _atom_site_occupancy
  C  C0  1  0.51865988  0.26890354  0.43638100  1
  C  C1  1  0.92417150  0.22276686  0.02620395  1
  C  C2  1  0.57582102  0.72286609  0.52603446  1
  C  C3  1  0.98144110  0.76881900  0.93624599  1
  N  N4  1  0.53955313  0.28585505  0.62113020  1
  N  N5  1  0.04630685  0.21492958  0.89000333  1
  N  N6  1  0.45350822  0.71507712  0.38985035  1
  N  N7  1  0.96025647  0.78571729  0.12093062  1
  H  H8  1  0.63566348  0.24507361  0.37906143  1
  H  H9  1  0.43341712  0.18980345  0.40379903  1
  H  H10  1  0.47166336  0.35933082  0.39335800  1
  H  H11  1  0.57193999  0.19961734  0.66921398  1
  H  H12  1  0.63078760  0.35290197  0.65639473  1
  H  H13  1  0.43570939  0.32247565  0.67940221  1
  H  H14  1  0.96622054  0.29073327  0.12967360  1
  H  H15  1  0.90804557  0.12694539  0.06988985  1
  H  H16  1  0.81041262  0.25726841  0.97841402  1
  H  H17  1  0.16062801  0.21214967  0.94049417  1
  H  H18  1  0.03873982  0.29528219  0.82325867  1
  H  H19  1  0.03526408  0.13001125  0.80210206  1
  H  H20  1  0.53390768  0.79085891  0.62950512  1
  H  H21  1  0.59198923  0.62703629  0.56972201  1
  H  H22  1  0.68951875  0.75730568  0.47821990  1
  H  H23  1  0.46087667  0.79546541  0.32317339  1
  H  H24  1  0.33926154  0.71223900  0.44036079  1
  H  H25  1  0.46454342  0.63019266  0.30191132  1
  H  H26  1  0.86453679  0.74499806  0.87857509  1
  H  H27  1  0.02846077  0.85925880  0.89339512  1
  H  H28  1  0.06676979  0.68973051  0.90388432  1
  H  H29  1  0.86905038  0.85283952  0.15601405  1
  H  H30  1  0.92772476  0.69948747  0.16887847  1
  H  H31  1  0.06404977  0.82221655  0.17951809  1
  N  N32  1  0.09597311  0.97598033  0.71222364  1
  N  N33  1  0.40393320  0.47606436  0.21212659  1
  Sc  Sc34  1  0.49284392  0.95538422  0.99591212  1
  Sc  Sc35  1  0.00736927  0.45547582  0.49589547  1
  Br  Br36  1  0.46555369  0.34681005  0.03525754  1
  Br  Br37  1  0.24161775  0.01744924  0.16228836  1
  Br  Br38  1  0.67472583  0.98547505  0.25484957  1
  Br  Br39  1  0.00204202  0.21817177  0.46514967  1
  Br  Br40  1  0.32507916  0.00173930  0.69844627  1
  Br  Br41  1  0.69598487  0.02472175  0.77873426  1
  Br  Br42  1  0.49890617  0.71808585  0.96513663  1
  Br  Br43  1  0.80392563  0.52470615  0.27867844  1
  Br  Br44  1  0.17478170  0.50176314  0.19836384  1
  Br  Br45  1  0.03420452  0.84687212  0.53520279  1
  Br  Br46  1  0.25859352  0.51795611  0.66227147  1
  Br  Br47  1  0.82559008  0.48526660  0.75476064  1
