# generated using pymatgen
data_PH12C2(Br2N)3
_symmetry_space_group_name_H-M   'P 1'
_cell_length_a   8.17234201
_cell_length_b   9.76712494
_cell_length_c   8.19172724
_cell_angle_alpha   91.86992799
_cell_angle_beta   89.99865401
_cell_angle_gamma   89.99261253
_symmetry_Int_Tables_number   1
_chemical_formula_structural   PH12C2(Br2N)3
_chemical_formula_sum   'P2 H24 C4 Br12 N6'
_cell_volume   653.51780436
_cell_formula_units_Z   2
loop_
 _symmetry_equiv_pos_site_id
 _symmetry_equiv_pos_as_xyz
  1  'x, y, z'
loop_
 _atom_site_type_symbol
 _atom_site_label
 _atom_site_symmetry_multiplicity
 _atom_site_fract_x
 _atom_site_fract_y
 _atom_site_fract_z
 _atom_site_occupancy
  C  C0  1  0.48469494  0.27791878  0.42239441  1
  C  C1  1  0.96087980  0.22398916  0.05780755  1
  C  C2  1  0.53889067  0.72396631  0.55786260  1
  C  C3  1  0.01562535  0.77794367  0.92246069  1
  N  N4  1  0.54397634  0.26932169  0.59253959  1
  N  N5  1  0.06031242  0.22299988  0.90644480  1
  N  N6  1  0.43954373  0.72293631  0.40644878  1
  N  N7  1  0.95612821  0.76931041  0.09252663  1
  H  H8  1  0.58726925  0.26001504  0.33919454  1
  H  H9  1  0.38914477  0.20097620  0.40076154  1
  H  H10  1  0.43581025  0.38049880  0.40472805  1
  H  H11  1  0.58556334  0.17230901  0.62171638  1
  H  H12  1  0.63990403  0.33679649  0.61712903  1
  H  H13  1  0.45205380  0.29648004  0.67490739  1
  H  H14  1  0.04111702  0.24513531  0.16200782  1
  H  H15  1  0.90416597  0.12349819  0.06773129  1
  H  H16  1  0.86620446  0.30280197  0.05114982  1
  H  H17  1  0.15794120  0.15596565  0.91310406  1
  H  H18  1  0.10917050  0.31857829  0.88276579  1
  H  H19  1  0.99205184  0.19131438  0.80530684  1
  H  H20  1  0.45856388  0.74502609  0.66202477  1
  H  H21  1  0.59573399  0.62351431  0.56778476  1
  H  H22  1  0.63346045  0.80285297  0.55128587  1
  H  H23  1  0.39057755  0.81848795  0.38277210  1
  H  H24  1  0.34200082  0.65583092  0.41303737  1
  H  H25  1  0.50790461  0.69131928  0.30534029  1
  H  H26  1  0.91318908  0.75994774  0.83912817  1
  H  H27  1  0.06439057  0.88056116  0.90485414  1
  H  H28  1  0.11131289  0.70107729  0.90096448  1
  H  H29  1  0.86009757  0.83672942  0.11699891  1
  H  H30  1  0.91460378  0.67227562  0.12164806  1
  H  H31  1  0.04790750  0.79651422  0.17502174  1
  N  N32  1  0.06947039  0.98909794  0.61758783  1
  N  N33  1  0.43050262  0.48900706  0.11757911  1
  P  P34  1  0.49395984  0.98124213  0.02229237  1
  P  P35  1  0.00601993  0.48128927  0.52226420  1
  Br  Br36  1  0.47831085  0.31138635  0.01437766  1
  Br  Br37  1  0.24600392  0.99303762  0.20689417  1
  Br  Br38  1  0.67706016  0.98878384  0.24815483  1
  Br  Br39  1  0.01214176  0.24387713  0.49666127  1
  Br  Br40  1  0.29875886  0.99976038  0.67775051  1
  Br  Br41  1  0.71400646  0.01436809  0.79652491  1
  Br  Br42  1  0.48782263  0.74383096  0.99668067  1
  Br  Br43  1  0.78599226  0.51448898  0.29650873  1
  Br  Br44  1  0.20121436  0.49967162  0.17776281  1
  Br  Br45  1  0.02169065  0.81147611  0.51439436  1
  Br  Br46  1  0.25396704  0.49295717  0.70686229  1
  Br  Br47  1  0.82291142  0.48891109  0.74815266  1
