# generated using pymatgen
data_SiH12C2(Br2N)3
_symmetry_space_group_name_H-M   'P 1'
_cell_length_a   8.99080442
_cell_length_b   10.63503880
_cell_length_c   7.79766069
_cell_angle_alpha   102.94118330
_cell_angle_beta   83.48760590
_cell_angle_gamma   89.72092792
_symmetry_Int_Tables_number   1
_chemical_formula_structural   SiH12C2(Br2N)3
_chemical_formula_sum   'Si2 H24 C4 Br12 N6'
_cell_volume   721.61380150
_cell_formula_units_Z   2
loop_
 _symmetry_equiv_pos_site_id
 _symmetry_equiv_pos_as_xyz
  1  'x, y, z'
loop_
 _atom_site_type_symbol
 _atom_site_label
 _atom_site_symmetry_multiplicity
 _atom_site_fract_x
 _atom_site_fract_y
 _atom_site_fract_z
 _atom_site_occupancy
  C  C0  1  0.52623763  0.30526432  0.47889686  1
  C  C1  1  0.85956446  0.18993260  0.05858055  1
  C  C2  1  0.57500927  0.66209901  0.53196314  1
  C  C3  1  0.92478622  0.82389192  0.97375035  1
  N  N4  1  0.53662198  0.22691685  0.61240817  1
  N  N5  1  0.97106233  0.20358909  0.91198732  1
  N  N6  1  0.50443777  0.68719672  0.37989783  1
  N  N7  1  0.96051871  0.81433076  0.15196538  1
  H  H8  1  0.63804609  0.33203312  0.43018520  1
  H  H9  1  0.47365149  0.24859136  0.36821214  1
  H  H10  1  0.45581406  0.39190484  0.53801361  1
  H  H11  1  0.63172736  0.16483829  0.57879592  1
  H  H12  1  0.54471415  0.28447082  0.73641036  1
  H  H13  1  0.43579277  0.16744643  0.62378448  1
  H  H14  1  0.90972316  0.20798528  0.18407287  1
  H  H15  1  0.82048947  0.09063257  0.03424310  1
  H  H16  1  0.75983910  0.25509357  0.07884997  1
  H  H17  1  0.20425158  0.12843068  0.75325749  1
  H  H18  1  0.98922764  0.29945377  0.91862554  1
  H  H19  1  0.93010837  0.16867085  0.79322456  1
  H  H20  1  0.49200901  0.67597888  0.64871241  1
  H  H21  1  0.62074068  0.56339418  0.49575592  1
  H  H22  1  0.66695589  0.72826894  0.55815256  1
  H  H23  1  0.44650514  0.77549487  0.41200172  1
  H  H24  1  0.43100985  0.61342214  0.32749432  1
  H  H25  1  0.58876450  0.68516043  0.27643090  1
  H  H26  1  0.80409950  0.81363153  0.96986185  1
  H  H27  1  0.95904503  0.91686261  0.94706721  1
  H  H28  1  0.98452656  0.74549982  0.87431535  1
  H  H29  1  0.91194873  0.89003651  0.25642502  1
  H  H30  1  0.91993027  0.72614258  0.17740775  1
  H  H31  1  0.07435323  0.81587912  0.15861513  1
  N  N32  1  0.27590536  0.10063190  0.63588278  1
  N  N33  1  0.34468854  0.50088619  0.16580362  1
  Si  Si34  1  0.43041458  0.93574388  0.03623685  1
  Si  Si35  1  0.04074821  0.45132674  0.48811284  1
  Br  Br36  1  0.44534084  0.33866190  0.05972612  1
  Br  Br37  1  0.21902749  0.04924159  0.08327022  1
  Br  Br38  1  0.57121935  0.97839832  0.25825102  1
  Br  Br39  1  0.14025800  0.26066947  0.50747224  1
  Br  Br40  1  0.57848505  0.97161183  0.80688475  1
  Br  Br41  1  0.83705760  0.02559257  0.51019382  1
  Br  Br42  1  0.37729677  0.72734215  0.00284692  1
  Br  Br43  1  0.80625521  0.54171276  0.16401824  1
  Br  Br44  1  0.13578742  0.49448756  0.17054559  1
  Br  Br45  1  0.22879514  0.92486142  0.56682704  1
  Br  Br46  1  0.18901541  0.60789056  0.62260794  1
  Br  Br47  1  0.82821675  0.48847498  0.68225162  1
