# generated using pymatgen
data_AlH12C2(Br2N)3
_symmetry_space_group_name_H-M   'P 1'
_cell_length_a   9.46350457
_cell_length_b   10.25693652
_cell_length_c   7.57538143
_cell_angle_alpha   104.02681690
_cell_angle_beta   84.15902302
_cell_angle_gamma   88.23418618
_symmetry_Int_Tables_number   1
_chemical_formula_structural   AlH12C2(Br2N)3
_chemical_formula_sum   'Al2 H24 C4 Br12 N6'
_cell_volume   708.51356781
_cell_formula_units_Z   2
loop_
 _symmetry_equiv_pos_site_id
 _symmetry_equiv_pos_as_xyz
  1  'x, y, z'
loop_
 _atom_site_type_symbol
 _atom_site_label
 _atom_site_symmetry_multiplicity
 _atom_site_fract_x
 _atom_site_fract_y
 _atom_site_fract_z
 _atom_site_occupancy
  C  C0  1  0.59939171  0.35735048  0.53279295  1
  C  C1  1  0.97629075  0.17702549  0.09425959  1
  C  C2  1  0.50199221  0.73406116  0.42010561  1
  C  C3  1  0.95987527  0.78024394  0.96953655  1
  N  N4  1  0.59039681  0.34112349  0.72358140  1
  N  N5  1  0.01739239  0.19805975  0.91155060  1
  N  N6  1  0.44214481  0.65203359  0.25874341  1
  N  N7  1  0.86671686  0.78131800  0.14042972  1
  H  H8  1  0.70387891  0.31835925  0.46095123  1
  H  H9  1  0.51446812  0.30226567  0.46510220  1
  H  H10  1  0.58466848  0.46444013  0.53869887  1
  H  H11  1  0.60533489  0.24095212  0.72516890  1
  H  H12  1  0.66388739  0.39473399  0.80402991  1
  H  H13  1  0.49029631  0.37460169  0.79136259  1
  H  H14  1  0.05191510  0.10306044  0.12178033  1
  H  H15  1  0.86984409  0.13772440  0.09750927  1
  H  H16  1  0.97296169  0.26938940  0.20519376  1
  H  H17  1  0.97586613  0.06440552  0.76383508  1
  H  H18  1  0.12320044  0.21547126  0.89331599  1
  H  H19  1  0.96263068  0.28138737  0.89460349  1
  H  H20  1  0.41696123  0.77182266  0.53174298  1
  H  H21  1  0.58005834  0.67111228  0.46390008  1
  H  H22  1  0.55417491  0.81965705  0.38430616  1
  H  H23  1  0.39233343  0.71361660  0.19035200  1
  H  H24  1  0.36343493  0.58653802  0.29347140  1
  H  H25  1  0.52512045  0.59290446  0.17036916  1
  H  H26  1  0.89693531  0.75344067  0.85446277  1
  H  H27  1  0.99894879  0.88052976  0.97963893  1
  H  H28  1  0.04896110  0.70622060  0.95307369  1
  H  H29  1  0.78526072  0.85571745  0.16355090  1
  H  H30  1  0.82072665  0.68740888  0.13013715  1
  H  H31  1  0.92279262  0.80022692  0.25327155  1
  N  N32  1  0.92371547  0.97229237  0.69923682  1
  N  N33  1  0.23511253  0.47012059  0.30038737  1
  Al  Al34  1  0.48119923  0.93482366  0.98102863  1
  Al  Al35  1  0.16568747  0.42083294  0.52377968  1
  Br  Br36  1  0.34462686  0.32223226  0.12500455  1
  Br  Br37  1  0.26884846  0.89340360  0.13072617  1
  Br  Br38  1  0.61645870  0.05478328  0.19793513  1
  Br  Br39  1  0.21670098  0.19829300  0.50736073  1
  Br  Br40  1  0.43052814  0.05526300  0.77248625  1
  Br  Br41  1  0.81369998  0.03707079  0.53365627  1
  Br  Br42  1  0.61040229  0.73456393  0.84767683  1
  Br  Br43  1  0.74147647  0.47873026  0.09532395  1
  Br  Br44  1  0.07207006  0.51698977  0.18683021  1
  Br  Br45  1  0.07921368  0.85236984  0.56211383  1
  Br  Br46  1  0.29418748  0.55680281  0.73644077  1
  Br  Br47  1  0.92723440  0.47430370  0.61948124  1
