# generated using pymatgen
data_MgH12PbC2(Br3N)2
_symmetry_space_group_name_H-M   'P 1'
_cell_length_a   7.94352388
_cell_length_b   11.34693845
_cell_length_c   7.76558716
_cell_angle_alpha   88.50997163
_cell_angle_beta   90.00432743
_cell_angle_gamma   90.01243537
_symmetry_Int_Tables_number   1
_chemical_formula_structural   MgH12PbC2(Br3N)2
_chemical_formula_sum   'Mg2 H24 Pb2 C4 Br12 N4'
_cell_volume   699.71199189
_cell_formula_units_Z   2
loop_
 _symmetry_equiv_pos_site_id
 _symmetry_equiv_pos_as_xyz
  1  'x, y, z'
loop_
 _atom_site_type_symbol
 _atom_site_label
 _atom_site_symmetry_multiplicity
 _atom_site_fract_x
 _atom_site_fract_y
 _atom_site_fract_z
 _atom_site_occupancy
  C  C0  1  0.39475827  0.24998856  0.41245776  1
  C  C1  1  0.89577561  0.25012647  0.08844425  1
  C  C2  1  0.60523848  0.75001601  0.58755468  1
  C  C3  1  0.10423021  0.74987528  0.91156789  1
  N  N4  1  0.54550301  0.24902053  0.52420868  1
  N  N5  1  0.04593368  0.25097259  0.97589928  1
  N  N6  1  0.45449272  0.75098472  0.47580485  1
  N  N7  1  0.95407332  0.74902572  0.02411436  1
  H  H8  1  0.43527507  0.25034137  0.27790225  1
  H  H9  1  0.32189748  0.17034596  0.44074791  1
  H  H10  1  0.32056193  0.32843475  0.43811044  1
  H  H11  1  0.61789184  0.17538206  0.49890753  1
  H  H12  1  0.61855060  0.32351289  0.49844592  1
  H  H13  1  0.51443847  0.24656852  0.65495874  1
  H  H14  1  0.93705144  0.24979991  0.22276473  1
  H  H15  1  0.82127709  0.17171191  0.06329621  1
  H  H16  1  0.82292515  0.32981958  0.06056833  1
  H  H17  1  0.11896335  0.17645412  0.00136932  1
  H  H18  1  0.11856133  0.32458973  0.00074792  1
  H  H19  1  0.01420737  0.25338387  0.84530339  1
  H  H20  1  0.56472271  0.74966487  0.72211047  1
  H  H21  1  0.67943279  0.67156882  0.56190277  1
  H  H22  1  0.67810099  0.82965759  0.55926266  1
  H  H23  1  0.38210473  0.82462342  0.50110635  1
  H  H24  1  0.38144504  0.67649244  0.50156745  1
  H  H25  1  0.48555728  0.75343687  0.34505462  1
  H  H26  1  0.06295320  0.75020382  0.77724774  1
  H  H27  1  0.17872807  0.82828979  0.93671855  1
  H  H28  1  0.17708181  0.67018213  0.93943997  1
  H  H29  1  0.88104065  0.82354296  0.99864636  1
  H  H30  1  0.88144806  0.67540742  0.99926547  1
  H  H31  1  0.98580046  0.74661435  0.15471012  1
  Mg  Mg32  1  0.50000219  0.00000306  0.00000763  1
  Mg  Mg33  1  0.99999716  0.50000229  0.49999999  1
  Pb  Pb34  1  0.00000033  0.00000299  0.50000827  1
  Pb  Pb35  1  0.49999977  0.50000405  1.00000048  1
  Br  Br36  1  0.47499881  0.23697544  0.94509053  1
  Br  Br37  1  0.20448362  0.00612978  0.17036445  1
  Br  Br38  1  0.66987010  0.01339244  0.30283107  1
  Br  Br39  1  0.97437808  0.26302364  0.55539240  1
  Br  Br40  1  0.33013292  0.98661430  0.69718596  1
  Br  Br41  1  0.79552239  0.99387216  0.82965268  1
  Br  Br42  1  0.52500748  0.76303146  0.05492465  1
  Br  Br43  1  0.70455001  0.49375064  0.32952699  1
  Br  Br44  1  0.17000405  0.48669061  0.19723320  1
  Br  Br45  1  0.02561739  0.73698067  0.44462076  1
  Br  Br46  1  0.29544460  0.50625287  0.67047771  1
  Br  Br47  1  0.82999264  0.51331283  0.80277286  1
