# generated using pymatgen
data_MgHgH12C2(Br3N)2
_symmetry_space_group_name_H-M   'P 1'
_cell_length_a   7.07803038
_cell_length_b   12.17149153
_cell_length_c   8.22316895
_cell_angle_alpha   90.07088843
_cell_angle_beta   89.99956228
_cell_angle_gamma   90.00101803
_symmetry_Int_Tables_number   1
_chemical_formula_structural   MgHgH12C2(Br3N)2
_chemical_formula_sum   'Mg2 Hg2 H24 C4 Br12 N4'
_cell_volume   708.42699890
_cell_formula_units_Z   2
loop_
 _symmetry_equiv_pos_site_id
 _symmetry_equiv_pos_as_xyz
  1  'x, y, z'
loop_
 _atom_site_type_symbol
 _atom_site_label
 _atom_site_symmetry_multiplicity
 _atom_site_fract_x
 _atom_site_fract_y
 _atom_site_fract_z
 _atom_site_occupancy
  C  C0  1  0.41771533  0.25041100  0.36031360  1
  C  C1  1  0.92833817  0.24773859  0.13791764  1
  C  C2  1  0.57163890  0.74775949  0.63797806  1
  C  C3  1  0.08234187  0.75043731  0.86034508  1
  N  N4  1  0.50376654  0.26477553  0.52290127  1
  N  N5  1  0.01574175  0.25712594  0.97488939  1
  N  N6  1  0.48422689  0.75721891  0.47496464  1
  N  N7  1  0.99624558  0.76468589  0.02293732  1
  H  H8  1  0.52933978  0.25322394  0.26854829  1
  H  H9  1  0.34532551  0.17116590  0.35598407  1
  H  H10  1  0.31923346  0.31840738  0.34009149  1
  H  H11  1  0.61527499  0.21115446  0.54242630  1
  H  H12  1  0.55873406  0.34383228  0.53113554  1
  H  H13  1  0.40848913  0.25347128  0.61706144  1
  H  H14  1  0.03923603  0.25178266  0.23010082  1
  H  H15  1  0.85454954  0.16903155  0.14523468  1
  H  H16  1  0.83081148  0.31658185  0.15488038  1
  H  H17  1  0.12639555  0.20213498  0.95982280  1
  H  H18  1  0.07056179  0.33533796  0.96002177  1
  H  H19  1  0.92087573  0.24317557  0.88071323  1
  H  H20  1  0.46077245  0.75190879  0.73018137  1
  H  H21  1  0.64522147  0.66898830  0.64529161  1
  H  H22  1  0.66934995  0.81651696  0.65491913  1
  H  H23  1  0.42965320  0.83549169  0.46009682  1
  H  H24  1  0.37338585  0.70235079  0.45992100  1
  H  H25  1  0.57902256  0.74316462  0.38076848  1
  H  H26  1  0.97070844  0.75315012  0.76858183  1
  H  H27  1  0.18062034  0.81854091  0.84014930  1
  H  H28  1  0.15496268  0.67126737  0.85598595  1
  H  H29  1  0.94095747  0.84366458  0.03117115  1
  H  H30  1  0.88498118  0.71089894  0.04247395  1
  H  H31  1  0.09158679  0.75352035  0.11708701  1
  Mg  Mg32  1  0.55240201  0.95101802  0.07631242  1
  Mg  Mg33  1  0.94758657  0.45104239  0.57627254  1
  Hg  Hg34  1  0.04590121  0.95448743  0.44343779  1
  Hg  Hg35  1  0.45410578  0.45447536  0.94343635  1
  Br  Br36  1  0.49450225  0.23797512  0.91804573  1
  Br  Br37  1  0.21790981  0.01050386  0.13106972  1
  Br  Br38  1  0.69639011  0.01172554  0.35407205  1
  Br  Br39  1  0.97592316  0.24751842  0.58043605  1
  Br  Br40  1  0.30153732  0.00351805  0.64917183  1
  Br  Br41  1  0.78568700  0.99382996  0.86513720  1
  Br  Br42  1  0.52402776  0.74750017  0.08051637  1
  Br  Br43  1  0.71431723  0.49388468  0.36509792  1
  Br  Br44  1  0.19843893  0.50345464  0.14916574  1
  Br  Br45  1  0.00553822  0.73798349  0.41809189  1
  Br  Br46  1  0.28207561  0.51052221  0.63108092  1
  Br  Br47  1  0.80361633  0.51172304  0.85405663  1
