# generated using pymatgen
data_BeAlH12C2(I3N)2
_symmetry_space_group_name_H-M   'P 1'
_cell_length_a   7.43582408
_cell_length_b   13.05360337
_cell_length_c   8.93835416
_cell_angle_alpha   90.42044424
_cell_angle_beta   82.48881749
_cell_angle_gamma   84.89176208
_symmetry_Int_Tables_number   1
_chemical_formula_structural   BeAlH12C2(I3N)2
_chemical_formula_sum   'Be2 Al2 H24 C4 I12 N4'
_cell_volume   856.57605985
_cell_formula_units_Z   2
loop_
 _symmetry_equiv_pos_site_id
 _symmetry_equiv_pos_as_xyz
  1  'x, y, z'
loop_
 _atom_site_type_symbol
 _atom_site_label
 _atom_site_symmetry_multiplicity
 _atom_site_fract_x
 _atom_site_fract_y
 _atom_site_fract_z
 _atom_site_occupancy
  C  C0  1  0.37956927  0.25068173  0.34378654  1
  C  C1  1  0.88756960  0.25801463  0.12290361  1
  C  C2  1  0.62335981  0.75132390  0.64282649  1
  C  C3  1  0.13141260  0.76492243  0.88720554  1
  N  N4  1  0.43365845  0.23315160  0.49647303  1
  N  N5  1  0.96454764  0.21334391  0.97216183  1
  N  N6  1  0.57126557  0.77944456  0.49277541  1
  N  N7  1  0.03977767  0.79096083  0.04207610  1
  H  H8  1  0.49016475  0.21841439  0.25944348  1
  H  H9  1  0.25942531  0.20947209  0.33455058  1
  H  H10  1  0.34965836  0.33334839  0.32806672  1
  H  H11  1  0.42764731  0.15553130  0.52888314  1
  H  H12  1  0.56468470  0.25226943  0.50430920  1
  H  H13  1  0.34683052  0.27685503  0.57722018  1
  H  H14  1  0.98741976  0.24213347  0.20147311  1
  H  H15  1  0.76526547  0.21999744  0.16242451  1
  H  H16  1  0.85566696  0.34111185  0.11436080  1
  H  H17  1  0.96448157  0.13326259  0.96943361  1
  H  H18  1  0.09865731  0.23038227  0.94213518  1
  H  H19  1  0.89047401  0.23939595  0.88708966  1
  H  H20  1  0.50054954  0.73983918  0.72020469  1
  H  H21  1  0.71589699  0.68100905  0.63002082  1
  H  H22  1  0.69123218  0.81469703  0.68505663  1
  H  H23  1  0.49616291  0.85159108  0.50115303  1
  H  H24  1  0.49094466  0.72799861  0.45129798  1
  H  H25  1  0.68525181  0.78453019  0.41401101  1
  H  H26  1  0.02929893  0.76952369  0.80901578  1
  H  H27  1  0.22984215  0.82126143  0.85564003  1
  H  H28  1  0.19960542  0.68706972  0.88613193  1
  H  H29  1  0.99406031  0.86869221  0.05003175  1
  H  H30  1  0.92394822  0.75166322  0.06912660  1
  H  H31  1  0.12412905  0.77697864  0.12513240  1
  Be  Be32  1  0.57323382  0.94090450  0.08314778  1
  Be  Be33  1  0.82024636  0.42282566  0.59497695  1
  Al  Al34  1  0.04663645  0.98356366  0.47493022  1
  Al  Al35  1  0.39600280  0.44239871  0.88358694  1
  I  I36  1  0.44420368  0.24788647  0.90032153  1
  I  I37  1  0.25594008  0.01101561  0.12760433  1
  I  I38  1  0.71059633  0.00509898  0.28917241  1
  I  I39  1  0.91241018  0.24955135  0.57929425  1
  I  I40  1  0.33024882  0.00201023  0.66278350  1
  I  I41  1  0.77400145  0.98827134  0.86102041  1
  I  I42  1  0.57325893  0.75392900  0.08912613  1
  I  I43  1  0.74440742  0.50759795  0.38880880  1
  I  I44  1  0.22567201  0.51752618  0.12670288  1
  I  I45  1  0.09334845  0.76165239  0.43660950  1
  I  I46  1  0.25096560  0.49848915  0.64968618  1
  I  I47  1  0.73639254  0.49848522  0.84610344  1
