# generated using pymatgen
data_MgH12PtC2(Br3N)2
_symmetry_space_group_name_H-M   'P 1'
_cell_length_a   7.79261203
_cell_length_b   10.67909465
_cell_length_c   8.20834871
_cell_angle_alpha   87.90221753
_cell_angle_beta   89.95338976
_cell_angle_gamma   89.98533656
_symmetry_Int_Tables_number   1
_chemical_formula_structural   MgH12PtC2(Br3N)2
_chemical_formula_sum   'Mg2 H24 Pt2 C4 Br12 N4'
_cell_volume   682.62466521
_cell_formula_units_Z   2
loop_
 _symmetry_equiv_pos_site_id
 _symmetry_equiv_pos_as_xyz
  1  'x, y, z'
loop_
 _atom_site_type_symbol
 _atom_site_label
 _atom_site_symmetry_multiplicity
 _atom_site_fract_x
 _atom_site_fract_y
 _atom_site_fract_z
 _atom_site_occupancy
  C  C0  1  0.48889221  0.25652793  0.42241522  1
  C  C1  1  0.97513545  0.24628215  0.08291853  1
  C  C2  1  0.52449614  0.74574301  0.58239301  1
  C  C3  1  0.01110647  0.75660206  0.92299008  1
  N  N4  1  0.53455969  0.26231093  0.59754702  1
  N  N5  1  0.02249668  0.24646279  0.90769380  1
  N  N6  1  0.47728375  0.74718971  0.40715257  1
  N  N7  1  0.96575920  0.76252961  0.09823646  1
  H  H8  1  0.60633523  0.24919998  0.35073308  1
  H  H9  1  0.40758909  0.17459052  0.40446966  1
  H  H10  1  0.42163778  0.34297275  0.38565399  1
  H  H11  1  0.59731502  0.18188000  0.64148260  1
  H  H12  1  0.61381090  0.33793300  0.62166883  1
  H  H13  1  0.42739162  0.27364899  0.67008837  1
  H  H14  1  0.09382565  0.24537397  0.15388201  1
  H  H15  1  0.89994709  0.16190883  0.11278646  1
  H  H16  1  0.89842599  0.33020864  0.10395382  1
  H  H17  1  0.09777650  0.16991843  0.88060916  1
  H  H18  1  0.09111893  0.32589258  0.86982758  1
  H  H19  1  0.91412257  0.24341615  0.83547193  1
  H  H20  1  0.40577139  0.74425083  0.65351595  1
  H  H21  1  0.59971690  0.66119138  0.61116495  1
  H  H22  1  0.60117274  0.82945996  0.60442168  1
  H  H23  1  0.40844442  0.82676600  0.37034160  1
  H  H24  1  0.40227064  0.67078486  0.37907029  1
  H  H25  1  0.58567984  0.74489698  0.33469602  1
  H  H26  1  0.89351138  0.74876185  0.85184581  1
  H  H27  1  0.07779042  0.84317838  0.88571689  1
  H  H28  1  0.09283196  0.67484355  0.90500905  1
  H  H29  1  0.88657477  0.83820803  0.12254626  1
  H  H30  1  0.90307642  0.68214288  0.14250341  1
  H  H31  1  0.07309453  0.77390277  0.17035825  1
  Mg  Mg32  1  0.44198865  0.94652219  0.92850483  1
  Mg  Mg33  1  0.05785288  0.44682889  0.42968820  1
  Pt  Pt34  1  0.00808283  0.99657704  0.50400431  1
  Pt  Pt35  1  0.49205099  0.49640822  0.00392374  1
  Br  Br36  1  0.44430778  0.27181391  0.01406551  1
  Br  Br37  1  0.27173216  0.98197629  0.17091722  1
  Br  Br38  1  0.76177507  0.97444424  0.32310162  1
  Br  Br39  1  0.94544159  0.22519801  0.50110620  1
  Br  Br40  1  0.26203978  0.03175270  0.68207662  1
  Br  Br41  1  0.72251455  0.02223557  0.83355368  1
  Br  Br42  1  0.55445978  0.72496689  0.00056329  1
  Br  Br43  1  0.77741555  0.52248959  0.33358710  1
  Br  Br44  1  0.23852952  0.53183079  0.18328810  1
  Br  Br45  1  0.05580504  0.77195233  0.51419489  1
  Br  Br46  1  0.22859088  0.48183768  0.67190493  1
  Br  Br47  1  0.73847534  0.47426443  0.82265202  1
