# generated using pymatgen
data_BaMgH12C2(Br3N)2
_symmetry_space_group_name_H-M   'P 1'
_cell_length_a   8.13035886
_cell_length_b   11.58750833
_cell_length_c   7.84386949
_cell_angle_alpha   87.74749368
_cell_angle_beta   90.00177489
_cell_angle_gamma   90.00874770
_symmetry_Int_Tables_number   1
_chemical_formula_structural   BaMgH12C2(Br3N)2
_chemical_formula_sum   'Ba2 Mg2 H24 C4 Br12 N4'
_cell_volume   738.40465716
_cell_formula_units_Z   2
loop_
 _symmetry_equiv_pos_site_id
 _symmetry_equiv_pos_as_xyz
  1  'x, y, z'
loop_
 _atom_site_type_symbol
 _atom_site_label
 _atom_site_symmetry_multiplicity
 _atom_site_fract_x
 _atom_site_fract_y
 _atom_site_fract_z
 _atom_site_occupancy
  C  C0  1  0.39558999  0.25058364  0.41291536  1
  C  C1  1  0.89651934  0.24951311  0.08804059  1
  C  C2  1  0.60440705  0.74942085  0.58709750  1
  C  C3  1  0.10348595  0.75048860  0.91197100  1
  N  N4  1  0.54404394  0.24877697  0.52242362  1
  N  N5  1  0.04439479  0.25121257  0.97771085  1
  N  N6  1  0.45595255  0.75122857  0.47759001  1
  N  N7  1  0.95561127  0.74878602  0.02230177  1
  H  H8  1  0.43410607  0.25071969  0.27916151  1
  H  H9  1  0.32529191  0.17195600  0.44206737  1
  H  H10  1  0.32256075  0.32707589  0.43832403  1
  H  H11  1  0.61391590  0.17663485  0.49582209  1
  H  H12  1  0.61554960  0.32211725  0.49684208  1
  H  H13  1  0.51458018  0.24453529  0.65229282  1
  H  H14  1  0.93579732  0.24936986  0.22156328  1
  H  H15  1  0.82319101  0.17306782  0.06308555  1
  H  H16  1  0.82623167  0.32820734  0.05936654  1
  H  H17  1  0.11590595  0.17784366  0.00300944  1
  H  H18  1  0.11449587  0.32332924  0.00386242  1
  H  H19  1  0.01430791  0.25540882  0.84799163  1
  H  H20  1  0.56589190  0.74928671  0.72085161  1
  H  H21  1  0.67743396  0.67292731  0.56168984  1
  H  H22  1  0.67470739  0.82804719  0.55794351  1
  H  H23  1  0.38608149  0.82337090  0.50419218  1
  H  H24  1  0.38444641  0.67788839  0.50317113  1
  H  H25  1  0.48541626  0.75547044  0.34772076  1
  H  H26  1  0.06420720  0.75063416  0.77844848  1
  H  H27  1  0.17681403  0.82693349  0.93692901  1
  H  H28  1  0.17377406  0.67179407  0.94064106  1
  H  H29  1  0.88409761  0.82215393  0.99700505  1
  H  H30  1  0.88551232  0.67666833  0.99614964  1
  H  H31  1  0.98569872  0.74458962  0.15202096  1
  Mg  Mg32  1  0.50000290  0.00000289  0.00000850  1
  Mg  Mg33  1  0.99999744  0.50000193  0.50000215  1
  Ba  Ba34  1  0.00000135  0.00000234  0.50000803  1
  Ba  Ba35  1  0.49999869  0.50000378  0.00000177  1
  Br  Br36  1  0.47541879  0.23034968  0.94055867  1
  Br  Br37  1  0.20809949  0.00732127  0.15695874  1
  Br  Br38  1  0.65678635  0.01910629  0.30246838  1
  Br  Br39  1  0.97497312  0.26964818  0.55988781  1
  Br  Br40  1  0.34321657  0.98090026  0.69754904  1
  Br  Br41  1  0.79190621  0.99268091  0.84305880  1
  Br  Br42  1  0.52458643  0.76965611  0.05945742  1
  Br  Br43  1  0.70819472  0.49252733  0.34289261  1
  Br  Br44  1  0.15694269  0.48095074  0.19763451  1
  Br  Br45  1  0.02502251  0.73035624  0.44012433  1
  Br  Br46  1  0.29180169  0.50747629  0.65711188  1
  Br  Br47  1  0.84305445  0.51905345  0.80237124  1
