# generated using pymatgen
data_MgSnH12C2(Br3N)2
_symmetry_space_group_name_H-M   'P 1'
_cell_length_a   7.93094719
_cell_length_b   11.26728583
_cell_length_c   7.74963537
_cell_angle_alpha   88.62648520
_cell_angle_beta   90.00060144
_cell_angle_gamma   90.01162293
_symmetry_Int_Tables_number   1
_chemical_formula_structural   MgSnH12C2(Br3N)2
_chemical_formula_sum   'Mg2 Sn2 H24 C4 Br12 N4'
_cell_volume   692.31035738
_cell_formula_units_Z   2
loop_
 _symmetry_equiv_pos_site_id
 _symmetry_equiv_pos_as_xyz
  1  'x, y, z'
loop_
 _atom_site_type_symbol
 _atom_site_label
 _atom_site_symmetry_multiplicity
 _atom_site_fract_x
 _atom_site_fract_y
 _atom_site_fract_z
 _atom_site_occupancy
  C  C0  1  0.39898758  0.24956635  0.41399689  1
  C  C1  1  0.89985752  0.25049845  0.08664726  1
  C  C2  1  0.60100859  0.75043827  0.58601468  1
  C  C3  1  0.10014860  0.74950398  0.91336451  1
  N  N4  1  0.55041903  0.24857296  0.52537266  1
  N  N5  1  0.05078696  0.25138608  0.97459876  1
  N  N6  1  0.44957616  0.75143281  0.47463961  1
  N  N7  1  0.94921994  0.74861272  0.02541443  1
  H  H8  1  0.43918424  0.25021062  0.27910342  1
  H  H9  1  0.32605819  0.16942190  0.44230778  1
  H  H10  1  0.32492075  0.32858700  0.44030357  1
  H  H11  1  0.62297261  0.17451303  0.49968703  1
  H  H12  1  0.62340795  0.32350714  0.49938093  1
  H  H13  1  0.51976201  0.24625284  0.65640822  1
  H  H14  1  0.94067369  0.24986226  0.22135037  1
  H  H15  1  0.82552182  0.17150500  0.06075287  1
  H  H16  1  0.82693803  0.33068481  0.05868866  1
  H  H17  1  0.12376778  0.17642724  0.00035343  1
  H  H18  1  0.12356213  0.32542537  -0.00009604  1
  H  H19  1  0.01959815  0.25367111  0.84369391  1
  H  H20  1  0.56081265  0.74979499  0.72090849  1
  H  H21  1  0.67507334  0.67141674  0.55970812  1
  H  H22  1  0.67393943  0.83058172  0.55770265  1
  H  H23  1  0.37702388  0.82549327  0.50032583  1
  H  H24  1  0.37658656  0.67649913  0.50063148  1
  H  H25  1  0.48023300  0.75375289  0.34360418  1
  H  H26  1  0.05933130  0.75014143  0.77866181  1
  H  H27  1  0.17448245  0.82849803  0.93926070  1
  H  H28  1  0.17307028  0.66931824  0.94132024  1
  H  H29  1  0.87623602  0.82357016  0.99966143  1
  H  H30  1  0.87644757  0.67457215  1.00010887  1
  H  H31  1  0.98040958  0.74632770  0.15631908  1
  Mg  Mg32  1  0.50000121  0.00000147  0.00000651  1
  Mg  Mg33  1  0.99999969  0.50000221  0.50000293  1
  Sn  Sn34  1  0.99999884  0.00000289  0.50000773  1
  Sn  Sn35  1  0.50000125  0.50000204  0.00000400  1
  Br  Br36  1  0.47814296  0.23859901  0.94723890  1
  Br  Br37  1  0.20582600  0.00570542  0.17680189  1
  Br  Br38  1  0.67689934  0.01182732  0.30110380  1
  Br  Br39  1  0.97757656  0.26140064  0.55309269  1
  Br  Br40  1  0.32310322  0.98817923  0.69891233  1
  Br  Br41  1  0.79417939  0.99429606  0.82321407  1
  Br  Br42  1  0.52186361  0.76140602  0.05277561  1
  Br  Br43  1  0.70589442  0.49423218  0.32309809  1
  Br  Br44  1  0.17700074  0.48822047  0.19893683  1
  Br  Br45  1  0.02241926  0.73860315  0.44692131  1
  Br  Br46  1  0.29410320  0.50577081  0.67691123  1
  Br  Br47  1  0.82299626  0.51178301  0.80107282  1
