# generated using pymatgen
data_MgInH12C2(Br3N)2
_symmetry_space_group_name_H-M   'P 1'
_cell_length_a   8.08294029
_cell_length_b   11.30212942
_cell_length_c   7.70484636
_cell_angle_alpha   89.18494421
_cell_angle_beta   90.32009938
_cell_angle_gamma   89.94514417
_symmetry_Int_Tables_number   1
_chemical_formula_structural   MgInH12C2(Br3N)2
_chemical_formula_sum   'Mg2 In2 H24 C4 Br12 N4'
_cell_volume   703.78932410
_cell_formula_units_Z   2
loop_
 _symmetry_equiv_pos_site_id
 _symmetry_equiv_pos_as_xyz
  1  'x, y, z'
loop_
 _atom_site_type_symbol
 _atom_site_label
 _atom_site_symmetry_multiplicity
 _atom_site_fract_x
 _atom_site_fract_y
 _atom_site_fract_z
 _atom_site_occupancy
  C  C0  1  0.43002221  0.24792007  0.43366418  1
  C  C1  1  0.93575635  0.24651297  0.06940815  1
  C  C2  1  0.56997579  0.75208035  0.56634084  1
  C  C3  1  0.06424267  0.75349300  0.93059904  1
  N  N4  1  0.58720274  0.23691543  0.53252277  1
  N  N5  1  0.08938319  0.24545361  0.96534685  1
  N  N6  1  0.41279999  0.76308979  0.46747442  1
  N  N7  1  0.91061507  0.75454692  0.03465863  1
  H  H8  1  0.45923995  0.25132019  0.29539096  1
  H  H9  1  0.35435750  0.17019353  0.46241404  1
  H  H10  1  0.36709300  0.32883252  0.47227209  1
  H  H11  1  0.64534716  0.15805493  0.50181391  1
  H  H12  1  0.66688444  0.30551838  0.50069331  1
  H  H13  1  0.56776247  0.23834007  0.66599564  1
  H  H14  1  0.97006970  0.24500510  0.20691083  1
  H  H15  1  0.86258321  0.16834945  0.03798614  1
  H  H16  1  0.86686096  0.32735884  0.03830347  1
  H  H17  1  0.15575499  0.16796237  0.99059018  1
  H  H18  1  0.16395581  0.31611083  0.99933685  1
  H  H19  1  0.06492936  0.25234933  0.83258407  1
  H  H20  1  0.54075128  0.74867856  0.70461262  1
  H  H21  1  0.63290407  0.67116762  0.52773325  1
  H  H22  1  0.64564433  0.82980612  0.53759853  1
  H  H23  1  0.35465672  0.84195039  0.49818374  1
  H  H24  1  0.33311549  0.69448721  0.49929929  1
  H  H25  1  0.43224493  0.76166651  0.33400275  1
  H  H26  1  0.02993138  0.75500310  0.79309561  1
  H  H27  1  0.13741186  0.83165793  0.96202390  1
  H  H28  1  0.13314248  0.67264923  0.96170448  1
  H  H29  1  0.84424266  0.83203864  0.00942210  1
  H  H30  1  0.83604306  0.68389055  0.00066589  1
  H  H31  1  0.93506940  0.74764494  0.16742118  1
  Mg  Mg32  1  0.49999925  0.99999946  0.00000534  1
  Mg  Mg33  1  0.00009625  0.50001623  0.50022277  1
  In  In34  1  0.99999969  0.99999562  0.50000902  1
  In  In35  1  0.49999834  0.49999305  0.00008168  1
  Br  Br36  1  0.50676194  0.26443705  0.95666162  1
  Br  Br37  1  0.22800525  0.00531883  0.17635266  1
  Br  Br38  1  0.67183293  1.00032510  0.28355698  1
  Br  Br39  1  0.99946743  0.28141498  0.54565037  1
  Br  Br40  1  0.32816552  -0.00032548  0.71645267  1
  Br  Br41  1  0.77199486  0.99468693  0.82365936  1
  Br  Br42  1  0.49322851  0.73557065  0.04330622  1
  Br  Br43  1  0.69992403  0.48431104  0.29409606  1
  Br  Br44  1  0.21599474  0.48281497  0.19597767  1
  Br  Br45  1  0.00051579  0.71858059  0.45433360  1
  Br  Br46  1  0.30005487  0.51569912  0.70587035  1
  Br  Br47  1  0.78399012  0.51719166  0.80399053  1
