# generated using pymatgen
data_MgCdH12C2(Br3N)2
_symmetry_space_group_name_H-M   'P 1'
_cell_length_a   7.81719048
_cell_length_b   10.96262012
_cell_length_c   7.67118899
_cell_angle_alpha   89.32075604
_cell_angle_beta   89.98007646
_cell_angle_gamma   90.00242337
_symmetry_Int_Tables_number   1
_chemical_formula_structural   MgCdH12C2(Br3N)2
_chemical_formula_sum   'Mg2 Cd2 H24 C4 Br12 N4'
_cell_volume   657.35079985
_cell_formula_units_Z   2
loop_
 _symmetry_equiv_pos_site_id
 _symmetry_equiv_pos_as_xyz
  1  'x, y, z'
loop_
 _atom_site_type_symbol
 _atom_site_label
 _atom_site_symmetry_multiplicity
 _atom_site_fract_x
 _atom_site_fract_y
 _atom_site_fract_z
 _atom_site_occupancy
  C  C0  1  0.42060886  0.24949178  0.41998507  1
  C  C1  1  0.92097172  0.25043462  0.07975640  1
  C  C2  1  0.57938857  0.75051158  0.58002455  1
  C  C3  1  0.07903164  0.74957073  0.92025302  1
  N  N4  1  0.57240031  0.24841450  0.53428238  1
  N  N5  1  0.07266080  0.25149991  0.96526120  1
  N  N6  1  0.42759757  0.75159120  0.46573170  1
  N  N7  1  0.92734051  0.74850163  0.03475119  1
  H  H8  1  0.46353139  0.25030993  0.28457281  1
  H  H9  1  0.34560764  0.16756555  0.44657880  1
  H  H10  1  0.34590854  0.33109518  0.44655940  1
  H  H11  1  0.64635147  0.17206586  0.50975903  1
  H  H12  1  0.64746287  0.32460284  0.50893254  1
  H  H13  1  0.54022135  0.24759007  0.66632425  1
  H  H14  1  0.96405313  0.24964336  0.21512129  1
  H  H15  1  0.84622535  0.16884666  0.05336500  1
  H  H16  1  0.84596453  0.33237896  0.05328328  1
  H  H17  1  0.14770433  0.17529567  0.99041911  1
  H  H18  1  0.14663131  0.32781048  0.98950026  1
  H  H19  1  0.04027239  0.25227755  0.83318585  1
  H  H20  1  0.53646687  0.74969436  0.71543894  1
  H  H21  1  0.65408715  0.66890673  0.55345202  1
  H  H22  1  0.65439295  0.83243664  0.55343123  1
  H  H23  1  0.35364925  0.82794062  0.49025186  1
  H  H24  1  0.35253246  0.67540394  0.49107905  1
  H  H25  1  0.45977664  0.75241444  0.33368562  1
  H  H26  1  0.03594841  0.75036246  0.78488995  1
  H  H27  1  0.15377362  0.83115964  0.94664632  1
  H  H28  1  0.15404065  0.66762778  0.94672529  1
  H  H29  1  0.85229530  0.82470453  0.00959292  1
  H  H30  1  0.85337440  0.67219012  0.01050920  1
  H  H31  1  0.95972999  0.74772374  0.16682439  1
  Mg  Mg32  1  0.50000121  0.99999947  0.00000456  1
  Mg  Mg33  1  0.00000550  0.50000104  0.50001553  1
  Cd  Cd34  1  1.00000000  0.00000052  0.50000412  1
  Cd  Cd35  1  0.50000384  0.49999809  0.00001701  1
  Br  Br36  1  0.49394891  0.24349009  0.95498625  1
  Br  Br37  1  0.21140564  0.00594561  0.19347627  1
  Br  Br38  1  0.70188051  0.00718855  0.29931874  1
  Br  Br39  1  0.99360901  0.25649925  0.54479409  1
  Br  Br40  1  0.29811968  0.99281596  0.70069280  1
  Br  Br41  1  0.78859554  0.99405639  0.80653498  1
  Br  Br42  1  0.50605362  0.75651105  0.04502600  1
  Br  Br43  1  0.71150441  0.49410985  0.30655042  1
  Br  Br44  1  0.20183955  0.49271531  0.20055482  1
  Br  Br45  1  0.00638995  0.74350242  0.45521877  1
  Br  Br46  1  0.28850297  0.50589264  0.69346808  1
  Br  Br47  1  0.79816139  0.50728892  0.79946023  1
