# generated using pymatgen
data_MgH12PdC2(Br3N)2
_symmetry_space_group_name_H-M   'P 1'
_cell_length_a   7.39025862
_cell_length_b   11.40439643
_cell_length_c   8.13073585
_cell_angle_alpha   91.03416456
_cell_angle_beta   89.99930515
_cell_angle_gamma   90.00523324
_symmetry_Int_Tables_number   1
_chemical_formula_structural   MgH12PdC2(Br3N)2
_chemical_formula_sum   'Mg2 H24 Pd2 C4 Br12 N4'
_cell_volume   685.15849192
_cell_formula_units_Z   2
loop_
 _symmetry_equiv_pos_site_id
 _symmetry_equiv_pos_as_xyz
  1  'x, y, z'
loop_
 _atom_site_type_symbol
 _atom_site_label
 _atom_site_symmetry_multiplicity
 _atom_site_fract_x
 _atom_site_fract_y
 _atom_site_fract_z
 _atom_site_occupancy
  C  C0  1  0.48773674  0.25648177  0.42153819  1
  C  C1  1  0.98772890  0.24345476  0.07844869  1
  C  C2  1  0.50922832  0.74409836  0.57547472  1
  C  C3  1  0.00928920  0.75597175  0.92456032  1
  N  N4  1  0.55738363  0.24958151  0.59251456  1
  N  N5  1  0.05741791  0.25045118  0.90749714  1
  N  N6  1  0.44455322  0.74984089  0.40322691  1
  N  N7  1  0.94455209  0.75011636  0.09677949  1
  H  H8  1  0.60380493  0.25928511  0.33863575  1
  H  H9  1  0.40595712  0.17842570  0.39512460  1
  H  H10  1  0.40596118  0.33589821  0.41025926  1
  H  H11  1  0.63627549  0.17526334  0.60786193  1
  H  H12  1  0.63827004  0.32083535  0.62371989  1
  H  H13  1  0.45519579  0.24643428  0.67911736  1
  H  H14  1  0.10376950  0.24060730  0.16137758  1
  H  H15  1  0.90596300  0.16401541  0.08960536  1
  H  H16  1  0.90592103  0.32147934  0.10492166  1
  H  H17  1  0.13829869  0.17921547  0.87621928  1
  H  H18  1  0.13632630  0.32478135  0.89227981  1
  H  H19  1  0.95525663  0.25366743  0.82087229  1
  H  H20  1  0.39228216  0.74384809  0.65756919  1
  H  H21  1  0.58840340  0.66390684  0.59001698  1
  H  H22  1  0.59475169  0.82073299  0.60038344  1
  H  H23  1  0.36636495  0.82439342  0.38251945  1
  H  H24  1  0.36701176  0.67732064  0.36934040  1
  H  H25  1  0.55103242  0.75280756  0.32112621  1
  H  H26  1  0.89238434  0.75626348  0.84242175  1
  H  H27  1  0.08843767  0.83620054  0.91016945  1
  H  H28  1  0.09486311  0.67938212  0.89958714  1
  H  H29  1  0.86700150  0.82260708  0.13073838  1
  H  H30  1  0.86634600  0.67554154  0.11734618  1
  H  H31  1  0.05099082  0.74707184  0.17891273  1
  Mg  Mg32  1  0.50570727  0.99813710  0.90408940  1
  Mg  Mg33  1  0.00569464  0.50188191  0.59596854  1
  Pd  Pd34  1  0.99499891  0.99410510  0.49954175  1
  Pd  Pd35  1  0.49498616  0.50589215  0.00046293  1
  Br  Br36  1  0.48752704  0.19992629  0.00847199  1
  Br  Br37  1  0.18742214  0.97357158  0.25642039  1
  Br  Br38  1  0.72818806  0.98111384  0.32489073  1
  Br  Br39  1  0.98748747  0.30010684  0.49155224  1
  Br  Br40  1  0.27667809  0.02446746  0.66988117  1
  Br  Br41  1  0.81515826  0.02360567  0.75996424  1
  Br  Br42  1  0.49999340  0.79815790  0.99882283  1
  Br  Br43  1  0.68732758  0.52638713  0.24365249  1
  Br  Br44  1  0.22811450  0.51881400  0.17502553  1
  Br  Br45  1  -0.00003655  0.70184155  0.50117254  1
  Br  Br46  1  0.31524336  0.47646098  0.73996009  1
  Br  Br47  1  0.77677385  0.47562778  0.83025364  1
