# generated using pymatgen
data_SrMgH12C2(Br3N)2
_symmetry_space_group_name_H-M   'P 1'
_cell_length_a   7.98026030
_cell_length_b   11.34188190
_cell_length_c   7.76562176
_cell_angle_alpha   88.33507585
_cell_angle_beta   90.00314257
_cell_angle_gamma   90.00812909
_symmetry_Int_Tables_number   1
_chemical_formula_structural   SrMgH12C2(Br3N)2
_chemical_formula_sum   'Sr2 Mg2 H24 C4 Br12 N4'
_cell_volume   702.57877226
_cell_formula_units_Z   2
loop_
 _symmetry_equiv_pos_site_id
 _symmetry_equiv_pos_as_xyz
  1  'x, y, z'
loop_
 _atom_site_type_symbol
 _atom_site_label
 _atom_site_symmetry_multiplicity
 _atom_site_fract_x
 _atom_site_fract_y
 _atom_site_fract_z
 _atom_site_occupancy
  C  C0  1  0.39644121  0.25016857  0.41312246  1
  C  C1  1  0.89737127  0.24993996  0.08772721  1
  C  C2  1  0.60355592  0.74983606  0.58689010  1
  C  C3  1  0.10263383  0.75006219  0.91228425  1
  N  N4  1  0.54691921  0.24890930  0.52428689  1
  N  N5  1  0.04728201  0.25107007  0.97578477  1
  N  N6  1  0.45307734  0.75109619  0.47572640  1
  N  N7  1  0.95272391  0.74892861  0.02422781  1
  H  H8  1  0.43620960  0.25064173  0.27833445  1
  H  H9  1  0.32446438  0.17015428  0.44144735  1
  H  H10  1  0.32225213  0.32839629  0.43910296  1
  H  H11  1  0.61874918  0.17524051  0.49836850  1
  H  H12  1  0.61958220  0.32353695  0.49835599  1
  H  H13  1  0.51640555  0.24596453  0.65516809  1
  H  H14  1  0.93786834  0.24946757  0.22229113  1
  H  H15  1  0.82289638  0.17174099  0.06221174  1
  H  H16  1  0.82539294  0.32999871  0.05982436  1
  H  H17  1  0.11994482  0.17642423  0.00144644  1
  H  H18  1  0.11934206  0.32472455  0.00128121  1
  H  H19  1  0.01615120  0.25398583  0.84505720  1
  H  H20  1  0.56378829  0.74936437  0.72167834  1
  H  H21  1  0.67774304  0.67160731  0.56091035  1
  H  H22  1  0.67553448  0.82984932  0.55856368  1
  H  H23  1  0.38124819  0.82476530  0.50164520  1
  H  H24  1  0.38041383  0.67646874  0.50165737  1
  H  H25  1  0.48359075  0.75404091  0.34484514  1
  H  H26  1  0.06213585  0.75053683  0.77772055  1
  H  H27  1  0.17710817  0.82826092  0.93780268  1
  H  H28  1  0.17461307  0.67000323  0.94018302  1
  H  H29  1  0.88005833  0.82357327  0.99856804  1
  H  H30  1  0.88066641  0.67527297  0.99873073  1
  H  H31  1  0.98385543  0.74601264  0.15495526  1
  Mg  Mg32  1  0.50000250  0.00000273  0.00000789  1
  Mg  Mg33  1  0.99999807  0.50000193  0.50000316  1
  Sr  Sr34  1  0.00000087  0.00000230  0.50000753  1
  Sr  Sr35  1  0.49999923  0.50000339  0.00000316  1
  Br  Br36  1  0.47672466  0.23625736  0.94557612  1
  Br  Br37  1  0.20687481  0.00633404  0.17116186  1
  Br  Br38  1  0.67081317  0.01413533  0.30192578  1
  Br  Br39  1  0.97617221  0.26374293  0.55485734  1
  Br  Br40  1  0.32918854  0.98587080  0.69809080  1
  Br  Br41  1  0.79312996  0.99366779  0.82885469  1
  Br  Br42  1  0.52328024  0.76374816  0.05443875  1
  Br  Br43  1  0.70693735  0.49357549  0.32872544  1
  Br  Br44  1  0.17094336  0.48591819  0.19814116  1
  Br  Br45  1  0.02382458  0.73626125  0.44515531  1
  Br  Br46  1  0.29306030  0.50642808  0.67128149  1
  Br  Br47  1  0.82905458  0.51408559  0.80186642  1
