# generated using pymatgen
data_MgGeH12C2(Br3N)2
_symmetry_space_group_name_H-M   'P 1'
_cell_length_a   8.00917961
_cell_length_b   10.68617456
_cell_length_c   8.03744476
_cell_angle_alpha   89.28985494
_cell_angle_beta   87.05973930
_cell_angle_gamma   90.21548026
_symmetry_Int_Tables_number   1
_chemical_formula_structural   MgGeH12C2(Br3N)2
_chemical_formula_sum   'Mg2 Ge2 H24 C4 Br12 N4'
_cell_volume   686.93972335
_cell_formula_units_Z   2
loop_
 _symmetry_equiv_pos_site_id
 _symmetry_equiv_pos_as_xyz
  1  'x, y, z'
loop_
 _atom_site_type_symbol
 _atom_site_label
 _atom_site_symmetry_multiplicity
 _atom_site_fract_x
 _atom_site_fract_y
 _atom_site_fract_z
 _atom_site_occupancy
  C  C0  1  0.44395475  0.25109254  0.42238498  1
  C  C1  1  0.94855402  0.24978000  0.07567650  1
  C  C2  1  0.54042052  0.74950497  0.57134033  1
  C  C3  1  0.05675590  0.74841333  0.93665071  1
  N  N4  1  0.56262280  0.24847843  0.55805292  1
  N  N5  1  0.07779272  0.25151548  0.93690914  1
  N  N6  1  0.43056307  0.75254656  0.42836908  1
  N  N7  1  0.94125053  0.74949875  0.08677752  1
  H  H8  1  0.51607688  0.25134272  0.30342859  1
  H  H9  1  0.36472691  0.16774126  0.43357379  1
  H  H10  1  0.36868648  0.33585580  0.43293933  1
  H  H11  1  0.63675652  0.16944818  0.55002391  1
  H  H12  1  0.64153573  0.32548851  0.54991141  1
  H  H13  1  0.50383051  0.24750436  0.67640076  1
  H  H14  1  0.01132788  0.24291967  0.19299327  1
  H  H15  1  0.86739494  0.16867151  0.06153965  1
  H  H16  1  0.87648940  0.33624523  0.07081074  1
  H  H17  1  0.15056534  0.17169984  0.93983273  1
  H  H18  1  0.15710223  0.32770716  0.94424120  1
  H  H19  1  0.02679909  0.25631774  0.82011531  1
  H  H20  1  0.46187438  0.74528880  0.68624694  1
  H  H21  1  0.62008804  0.66697466  0.56125347  1
  H  H22  1  0.61604089  0.83477935  0.56797660  1
  H  H23  1  0.35273754  0.82967804  0.43354684  1
  H  H24  1  0.35481402  0.67384882  0.42612799  1
  H  H25  1  0.49672622  0.75690603  0.31339822  1
  H  H26  1  0.98273860  0.74234177  0.82668833  1
  H  H27  1  0.12958286  0.83513070  0.93272032  1
  H  H28  1  0.13855654  0.66721702  0.94490451  1
  H  H29  1  0.85855303  0.82347226  0.08281349  1
  H  H30  1  0.86978761  0.66844796  0.09767554  1
  H  H31  1  0.00392533  0.75658807  0.19647914  1
  Mg  Mg32  1  0.45715281  0.99344832  0.95989163  1
  Mg  Mg33  1  0.96622495  0.49885484  0.45085339  1
  Ge  Ge34  1  0.96793681  0.99868933  0.50724785  1
  Ge  Ge35  1  0.51105722  0.49577483  0.95965216  1
  Br  Br36  1  0.51101880  0.23567797  0.97697719  1
  Br  Br37  1  0.22226076  0.99949681  0.19166652  1
  Br  Br38  1  0.72134106  0.00235245  0.31703960  1
  Br  Br39  1  0.99532875  0.26534638  0.53267394  1
  Br  Br40  1  0.29966662  0.00288625  0.69900636  1
  Br  Br41  1  0.79233923  0.99904174  0.79309789  1
  Br  Br42  1  0.52870160  0.76414566  0.02022394  1
  Br  Br43  1  0.70075354  0.50408605  0.30074850  1
  Br  Br44  1  0.19984039  0.50271218  0.22215059  1
  Br  Br45  1  0.00979486  0.73870923  0.49740121  1
  Br  Br46  1  0.31187075  0.49269058  0.72217633  1
  Br  Br47  1  0.79610431  0.50372014  0.78768628  1
