# generated using pymatgen
data_MgGaH12C2(Br3N)2
_symmetry_space_group_name_H-M   'P 1'
_cell_length_a   8.01252741
_cell_length_b   10.43140280
_cell_length_c   8.44475128
_cell_angle_alpha   88.38734537
_cell_angle_beta   90.22996950
_cell_angle_gamma   91.17920066
_symmetry_Int_Tables_number   1
_chemical_formula_structural   MgGaH12C2(Br3N)2
_chemical_formula_sum   'Mg2 Ga2 H24 C4 Br12 N4'
_cell_volume   705.39521598
_cell_formula_units_Z   2
loop_
 _symmetry_equiv_pos_site_id
 _symmetry_equiv_pos_as_xyz
  1  'x, y, z'
loop_
 _atom_site_type_symbol
 _atom_site_label
 _atom_site_symmetry_multiplicity
 _atom_site_fract_x
 _atom_site_fract_y
 _atom_site_fract_z
 _atom_site_occupancy
  C  C0  1  0.46979903  0.23944832  0.43889439  1
  C  C1  1  0.97878769  0.24474264  0.06519040  1
  C  C2  1  0.52406683  0.76113014  0.56072108  1
  C  C3  1  0.03405719  0.75649653  0.92192950  1
  N  N4  1  0.55777818  0.24941178  0.59323608  1
  N  N5  1  0.05712369  0.24561940  0.90596947  1
  N  N6  1  0.44085422  0.75494918  0.40376478  1
  N  N7  1  0.93974609  0.75417940  0.07297930  1
  H  H8  1  0.56221325  0.23670500  0.34426006  1
  H  H9  1  0.39309430  0.15143878  0.44025934  1
  H  H10  1  0.38977548  0.32278039  0.42346962  1
  H  H11  1  0.62582767  0.16821825  0.62296241  1
  H  H12  1  0.63999729  0.32744772  0.59629621  1
  H  H13  1  0.47335727  0.26060756  0.68397913  1
  H  H14  1  0.07688791  0.24161568  0.15519428  1
  H  H15  1  0.89715833  0.15972615  0.07761280  1
  H  H16  1  0.90600872  0.33176487  0.07503461  1
  H  H17  1  0.12718605  0.16397543  0.88784100  1
  H  H18  1  0.13679575  0.32422186  0.88625699  1
  H  H19  1  0.96759711  0.24966742  0.81738259  1
  H  H20  1  0.42769795  0.76432269  0.65147214  1
  H  H21  1  0.59910361  0.67539590  0.57947828  1
  H  H22  1  0.60366287  0.84755760  0.56280165  1
  H  H23  1  0.37357580  0.83701262  0.37350380  1
  H  H24  1  0.35772475  0.67780307  0.39889801  1
  H  H25  1  0.52799421  0.74682627  0.31481809  1
  H  H26  1  0.94497408  0.75982617  0.82355649  1
  H  H27  1  0.11589103  0.84167618  0.91814872  1
  H  H28  1  0.10785511  0.66955216  0.91708721  1
  H  H29  1  0.87071934  0.83682906  0.08737105  1
  H  H30  1  0.85632087  0.67728828  0.08040741  1
  H  H31  1  0.01708851  0.74742850  0.17162295  1
  Mg  Mg32  1  0.49860275  0.99234481  0.01050284  1
  Mg  Mg33  1  0.01993925  0.49650223  0.58961926  1
  Ga  Ga34  1  0.00068803  0.00164099  0.51812960  1
  Ga  Ga35  1  0.47998695  0.50138796  0.09810439  1
  Br  Br36  1  0.49763069  0.28795266  0.00507135  1
  Br  Br37  1  0.24258657  0.98206430  0.19735333  1
  Br  Br38  1  0.70475723  0.97700955  0.24572256  1
  Br  Br39  1  0.97143799  0.27669975  0.47820767  1
  Br  Br40  1  0.30323084  0.02143298  0.76155060  1
  Br  Br41  1  0.75311800  0.01406050  0.81083988  1
  Br  Br42  1  0.51390572  0.70913738  0.96772601  1
  Br  Br43  1  0.69426732  0.51596847  0.29089024  1
  Br  Br44  1  0.20993719  0.50954044  0.20671456  1
  Br  Br45  1  0.00923012  0.71980336  0.47391263  1
  Br  Br46  1  0.30180517  0.48250678  0.70258927  1
  Br  Br47  1  0.79817974  0.48636114  0.79096259  1
