# generated using pymatgen
data_MgZnH12C2(Br3N)2
_symmetry_space_group_name_H-M   'P 1'
_cell_length_a   7.01540431
_cell_length_b   12.32241792
_cell_length_c   8.17290023
_cell_angle_alpha   89.48642300
_cell_angle_beta   89.99302558
_cell_angle_gamma   90.00039473
_symmetry_Int_Tables_number   1
_chemical_formula_structural   MgZnH12C2(Br3N)2
_chemical_formula_sum   'Mg2 Zn2 H24 C4 Br12 N4'
_cell_volume   706.49222380
_cell_formula_units_Z   2
loop_
 _symmetry_equiv_pos_site_id
 _symmetry_equiv_pos_as_xyz
  1  'x, y, z'
loop_
 _atom_site_type_symbol
 _atom_site_label
 _atom_site_symmetry_multiplicity
 _atom_site_fract_x
 _atom_site_fract_y
 _atom_site_fract_z
 _atom_site_occupancy
  C  C0  1  0.39510061  0.24634426  0.35652231  1
  C  C1  1  0.89287885  0.24742743  0.14293992  1
  C  C2  1  0.60693683  0.74740602  0.64313844  1
  C  C3  1  0.10513023  0.74643742  0.85670416  1
  N  N4  1  0.53073858  0.26438756  0.49190699  1
  N  N5  1  0.02909587  0.26348510  0.00696829  1
  N  N6  1  0.47085679  0.76356902  0.50712251  1
  N  N7  1  0.96930248  0.76431207  0.99203069  1
  H  H8  1  0.47394661  0.24361215  0.24094161  1
  H  H9  1  0.32018844  0.16981313  0.37864969  1
  H  H10  1  0.29501289  0.31442282  0.35296127  1
  H  H11  1  0.63762026  0.20640649  0.49625783  1
  H  H12  1  0.59806518  0.33985091  0.47684576  1
  H  H13  1  0.46650676  0.26218584  0.60718807  1
  H  H14  1  0.97140234  0.24441008  0.25872800  1
  H  H15  1  0.81699691  0.17114114  0.12363503  1
  H  H16  1  0.79423126  0.31620958  0.14361665  1
  H  H17  1  0.13405874  0.20440672  0.00588257  1
  H  H18  1  0.09812510  0.33838106  0.01888252  1
  H  H19  1  0.96561862  0.26082639  0.89127493  1
  H  H20  1  0.52832202  0.74440046  0.75889725  1
  H  H21  1  0.68271058  0.67108526  0.62382362  1
  H  H22  1  0.70569667  0.81613554  0.64389685  1
  H  H23  1  0.40194167  0.83850107  0.51903822  1
  H  H24  1  0.36578662  0.70455202  0.50596437  1
  H  H25  1  0.53442430  0.76088926  0.39145507  1
  H  H26  1  0.02641415  0.74372963  0.74107168  1
  H  H27  1  0.20508939  0.81458109  0.85330492  1
  H  H28  1  0.18016289  0.66993961  0.87877074  1
  H  H29  1  0.90182545  0.83973033  0.97700053  1
  H  H30  1  0.86256136  0.70624371  0.99625499  1
  H  H31  1  0.03341239  0.76211733  0.10735084  1
  Mg  Mg32  1  0.55620759  0.94941231  0.11019134  1
  Mg  Mg33  1  0.94379632  0.44945382  0.61008238  1
  Zn  Zn34  1  0.05722180  0.94279980  0.39447255  1
  Zn  Zn35  1  0.44271558  0.44277856  0.89434339  1
  Br  Br36  1  0.47929864  0.24934212  0.88779783  1
  Br  Br37  1  0.21034346  0.01146951  0.13232794  1
  Br  Br38  1  0.72303770  0.01054797  0.37642075  1
  Br  Br39  1  0.97988550  0.25057210  0.61175614  1
  Br  Br40  1  0.25495609  0.99499553  0.61482625  1
  Br  Br41  1  0.75935051  0.99742341  0.87788420  1
  Br  Br42  1  0.52017173  0.75053044  0.11195256  1
  Br  Br43  1  0.74066843  0.49748842  0.37782076  1
  Br  Br44  1  0.24497789  0.49492224  0.11477409  1
  Br  Br45  1  0.02065266  0.74936176  0.38796859  1
  Br  Br46  1  0.28964471  0.51151210  0.63228571  1
  Br  Br47  1  0.77693426  0.51052768  0.87636577  1
