# generated using pymatgen
data_MgBeH12C2(I3N)2
_symmetry_space_group_name_H-M   'P 1'
_cell_length_a   7.07795609
_cell_length_b   13.09057040
_cell_length_c   9.07444716
_cell_angle_alpha   91.25687095
_cell_angle_beta   89.98334374
_cell_angle_gamma   89.97748132
_symmetry_Int_Tables_number   1
_chemical_formula_structural   MgBeH12C2(I3N)2
_chemical_formula_sum   'Mg2 Be2 H24 C4 I12 N4'
_cell_volume   840.58581149
_cell_formula_units_Z   2
loop_
 _symmetry_equiv_pos_site_id
 _symmetry_equiv_pos_as_xyz
  1  'x, y, z'
loop_
 _atom_site_type_symbol
 _atom_site_label
 _atom_site_symmetry_multiplicity
 _atom_site_fract_x
 _atom_site_fract_y
 _atom_site_fract_z
 _atom_site_occupancy
  C  C0  1  0.33590882  0.25574488  0.35368738  1
  C  C1  1  0.83856584  0.25955551  0.14604343  1
  C  C2  1  0.66155315  0.75977242  0.64640316  1
  C  C3  1  0.16410260  0.75572362  0.85411326  1
  N  N4  1  0.42587652  0.25896312  0.50124895  1
  N  N5  1  0.92910188  0.26174137  0.99876399  1
  N  N6  1  0.57027855  0.76176357  0.49943326  1
  N  N7  1  0.07476701  0.75899441  0.00194443  1
  H  H8  1  0.44512718  0.25006006  0.26850705  1
  H  H9  1  0.24337688  0.18885518  0.34696240  1
  H  H10  1  0.25539286  0.32647402  0.34038331  1
  H  H11  1  0.50279293  0.19356859  0.52210048  1
  H  H12  1  0.51658243  0.32150526  0.51069980  1
  H  H13  1  0.32558179  0.26510066  0.58474456  1
  H  H14  1  0.94767417  0.25609300  0.23121562  1
  H  H15  1  0.74779918  0.19201559  0.14990601  1
  H  H16  1  0.75626210  0.32981815  0.16182122  1
  H  H17  1  0.01036936  0.19755457  0.97635333  1
  H  H18  1  0.01636012  0.32544000  0.99135549  1
  H  H19  1  0.82860821  0.26495064  0.91522301  1
  H  H20  1  0.55288814  0.75619113  0.73195432  1
  H  H21  1  0.75276662  0.69237216  0.65002367  1
  H  H22  1  0.74349830  0.83015583  0.66183058  1
  H  H23  1  0.48257835  0.82533973  0.49228487  1
  H  H24  1  0.48927568  0.69745370  0.47736678  1
  H  H25  1  0.67026528  0.76507209  0.41550147  1
  H  H26  1  0.05452158  0.75012834  0.76926823  1
  H  H27  1  0.24462982  0.82640188  0.84057871  1
  H  H28  1  0.25653349  0.68876682  0.84709389  1
  H  H29  1  0.98394995  0.82149968  0.01160452  1
  H  H30  1  0.99814089  0.69356773  0.02312319  1
  H  H31  1  0.17543853  0.76520133  0.08510119  1
  Be  Be32  1  0.61721804  0.93115183  0.11641109  1
  Be  Be33  1  0.88275774  0.43118399  0.61614636  1
  Mg  Mg34  1  0.11808089  0.93932345  0.37751059  1
  Mg  Mg35  1  0.38179812  0.43929745  0.87738334  1
  I  I36  1  0.42458906  0.23719553  0.89041073  1
  I  I37  1  0.29160475  0.00128754  0.11985600  1
  I  I38  1  0.75066620  0.00680396  0.34893605  1
  I  I39  1  0.91515282  0.24933916  0.61227092  1
  I  I40  1  0.30328738  0.99818716  0.61981561  1
  I  I41  1  0.79266920  0.98880693  0.91179314  1
  I  I42  1  0.58507325  0.74930064  0.11269997  1
  I  I43  1  0.70742530  0.48889923  0.41154004  1
  I  I44  1  0.19628982  0.49811871  0.11968134  1
  I  I45  1  0.07540518  0.73724715  0.39078371  1
  I  I46  1  0.20837912  0.50123362  0.61974156  1
  I  I47  1  0.74905863  0.50685684  0.84867460  1
