# generated using pymatgen
data_CaMgH12C2(Br3N)2
_symmetry_space_group_name_H-M   'P 1'
_cell_length_a   7.96128697
_cell_length_b   11.10653570
_cell_length_c   7.67619903
_cell_angle_alpha   89.05169096
_cell_angle_beta   89.98951969
_cell_angle_gamma   90.00373369
_symmetry_Int_Tables_number   1
_chemical_formula_structural   CaMgH12C2(Br3N)2
_chemical_formula_sum   'Ca2 Mg2 H24 C4 Br12 N4'
_cell_volume   678.65433275
_cell_formula_units_Z   2
loop_
 _symmetry_equiv_pos_site_id
 _symmetry_equiv_pos_as_xyz
  1  'x, y, z'
loop_
 _atom_site_type_symbol
 _atom_site_label
 _atom_site_symmetry_multiplicity
 _atom_site_fract_x
 _atom_site_fract_y
 _atom_site_fract_z
 _atom_site_occupancy
  C  C0  1  0.41637442  0.25023746  0.42522716  1
  C  C1  1  0.91678402  0.24978391  0.07493525  1
  C  C2  1  0.58362467  0.74976654  0.57478754  1
  C  C3  1  0.08321769  0.75022068  0.92507542  1
  N  N4  1  0.57100626  0.24813255  0.53179804  1
  N  N5  1  0.07107171  0.25182309  0.96776871  1
  N  N6  1  0.42899431  0.75187271  0.46821313  1
  N  N7  1  0.92893135  0.74817559  0.03224384  1
  H  H8  1  0.45196231  0.25141750  0.28770700  1
  H  H9  1  0.34420783  0.16901337  0.45497788  1
  H  H10  1  0.34424804  0.33054126  0.45617299  1
  H  H11  1  0.64163685  0.17279289  0.50209655  1
  H  H12  1  0.64375226  0.32355684  0.50391884  1
  H  H13  1  0.54470963  0.24575228  0.66496365  1
  H  H14  1  0.95284351  0.24857121  0.21229046  1
  H  H15  1  0.84445961  0.16950688  0.04425832  1
  H  H16  1  0.84460092  0.33104367  0.04549458  1
  H  H17  1  0.14383375  0.17639892  0.99538625  1
  H  H18  1  0.14184128  0.32714924  0.99712322  1
  H  H19  1  0.04434407  0.25418591  0.83467361  1
  H  H20  1  0.54803312  0.74858755  0.71230597  1
  H  H21  1  0.65574973  0.66946179  0.54384400  1
  H  H22  1  0.65579315  0.83098961  0.54503735  1
  H  H23  1  0.35836613  0.82721406  0.49791164  1
  H  H24  1  0.35624572  0.67645033  0.49609040  1
  H  H25  1  0.45529405  0.75425234  0.33504694  1
  H  H26  1  0.04715525  0.75143463  0.78772127  1
  H  H27  1  0.15553845  0.83049845  0.95575386  1
  H  H28  1  0.15540468  0.66896196  0.95451163  1
  H  H29  1  0.85616538  0.82359869  0.00462964  1
  H  H30  1  0.85816545  0.67284828  0.00288935  1
  H  H31  1  0.95566092  0.74581273  0.16533969  1
  Mg  Mg32  1  0.50000111  0.00000139  0.00000632  1
  Mg  Mg33  1  0.00000036  0.50000178  0.50000602  1
  Ca  Ca34  1  0.00000012  0.00000168  0.50000684  1
  Ca  Ca35  1  0.50000006  0.50000160  0.00000560  1
  Br  Br36  1  0.49129898  0.24144339  0.95440434  1
  Br  Br37  1  0.21437978  0.00799211  0.19161342  1
  Br  Br38  1  0.69256511  0.01040306  0.29301844  1
  Br  Br39  1  0.99100274  0.25855798  0.54550432  1
  Br  Br40  1  0.30743582  0.98960089  0.70699519  1
  Br  Br41  1  0.78562256  0.99200953  0.80840188  1
  Br  Br42  1  0.50870268  0.75855999  0.04560815  1
  Br  Br43  1  0.71441503  0.49206915  0.30831563  1
  Br  Br44  1  0.19251397  0.48955123  0.20696562  1
  Br  Br45  1  0.00899704  0.74144514  0.45450937  1
  Br  Br46  1  0.28558577  0.50793448  0.69169572  1
  Br  Br47  1  0.80748607  0.51045193  0.79304554  1
