# generated using pymatgen
data_MgSiH12C2(Br3N)2
_symmetry_space_group_name_H-M   'P 1'
_cell_length_a   8.20407647
_cell_length_b   10.35410750
_cell_length_c   8.36412144
_cell_angle_alpha   90.04733493
_cell_angle_beta   90.22134052
_cell_angle_gamma   90.42172205
_symmetry_Int_Tables_number   1
_chemical_formula_structural   MgSiH12C2(Br3N)2
_chemical_formula_sum   'Mg2 Si2 H24 C4 Br12 N4'
_cell_volume   710.47293100
_cell_formula_units_Z   2
loop_
 _symmetry_equiv_pos_site_id
 _symmetry_equiv_pos_as_xyz
  1  'x, y, z'
loop_
 _atom_site_type_symbol
 _atom_site_label
 _atom_site_symmetry_multiplicity
 _atom_site_fract_x
 _atom_site_fract_y
 _atom_site_fract_z
 _atom_site_occupancy
  C  C0  1  0.46048190  0.24660960  0.43888766  1
  C  C1  1  0.97185847  0.24863220  0.05698619  1
  C  C2  1  0.53273993  0.74817053  0.57028811  1
  C  C3  1  0.04347072  0.74978248  0.92412681  1
  N  N4  1  0.55519913  0.25209630  0.59052470  1
  N  N5  1  0.06392808  0.25003964  0.90433600  1
  N  N6  1  0.43183711  0.75564600  0.42234824  1
  N  N7  1  0.94642359  0.74441503  0.07361694  1
  H  H8  1  0.54547393  0.24536584  0.33874151  1
  H  H9  1  0.38569977  0.15871508  0.43842988  1
  H  H10  1  0.38238263  0.33156260  0.43234982  1
  H  H11  1  0.63065885  0.17277038  0.60376096  1
  H  H12  1  0.62858669  0.33384924  0.59923082  1
  H  H13  1  0.47988743  0.25269255  0.68965969  1
  H  H14  1  0.05839754  0.24487391  0.15625598  1
  H  H15  1  0.89198706  0.16358419  0.05879241  1
  H  H16  1  0.89852494  0.33630411  0.06339979  1
  H  H17  1  0.13215085  0.16695739  0.88651044  1
  H  H18  1  0.14391985  0.32811364  0.89643443  1
  H  H19  1  0.98612040  0.25669815  0.80693158  1
  H  H20  1  0.45185656  0.74375913  0.67362189  1
  H  H21  1  0.60773929  0.66135178  0.56490871  1
  H  H22  1  0.61027873  0.83426583  0.57708765  1
  H  H23  1  0.36015307  0.83772646  0.41873379  1
  H  H24  1  0.35285625  0.67753435  0.41233747  1
  H  H25  1  0.50222946  0.75731650  0.31937738  1
  H  H26  1  0.96000497  0.74672683  0.82192482  1
  H  H27  1  0.11361706  0.83989473  0.92271701  1
  H  H28  1  0.12557771  0.66695801  0.92154212  1
  H  H29  1  0.86409306  0.81950507  0.08050094  1
  H  H30  1  0.87755764  0.66033121  0.08094277  1
  H  H31  1  0.01837167  0.74900294  0.17601861  1
  Mg  Mg32  1  0.41573293  0.00085407  0.99488324  1
  Mg  Mg33  1  0.01549209  0.50020766  0.59038931  1
  Si  Si34  1  0.95858549  0.01138157  0.50798092  1
  Si  Si35  1  0.49437156  0.49918032  0.04623401  1
  Br  Br36  1  0.52104483  0.23180672  0.00570184  1
  Br  Br37  1  0.20983526  0.98730014  0.20978052  1
  Br  Br38  1  0.73287461  0.99781696  0.32400213  1
  Br  Br39  1  0.97984022  0.27295217  0.47592406  1
  Br  Br40  1  0.29168068  0.01223055  0.72281639  1
  Br  Br41  1  0.80213257  0.01530365  0.75435244  1
  Br  Br42  1  0.54676956  0.78394374  0.01344390  1
  Br  Br43  1  0.68410996  0.50879770  0.26767516  1
  Br  Br44  1  0.24303359  0.50313949  0.19486832  1
  Br  Br45  1  0.00876509  0.72018235  0.47126681  1
  Br  Br46  1  0.29043276  0.48398004  0.71237911  1
  Br  Br47  1  0.79125820  0.48974945  0.78727331  1
