# generated using pymatgen
data_MgAlH12C2(Br3N)2
_symmetry_space_group_name_H-M   'P 1'
_cell_length_a   8.14731624
_cell_length_b   10.35471807
_cell_length_c   8.42762947
_cell_angle_alpha   88.99493266
_cell_angle_beta   89.98083365
_cell_angle_gamma   89.02771417
_symmetry_Int_Tables_number   1
_chemical_formula_structural   MgAlH12C2(Br3N)2
_chemical_formula_sum   'Mg2 Al2 H24 C4 Br12 N4'
_cell_volume   710.76973823
_cell_formula_units_Z   2
loop_
 _symmetry_equiv_pos_site_id
 _symmetry_equiv_pos_as_xyz
  1  'x, y, z'
loop_
 _atom_site_type_symbol
 _atom_site_label
 _atom_site_symmetry_multiplicity
 _atom_site_fract_x
 _atom_site_fract_y
 _atom_site_fract_z
 _atom_site_occupancy
  C  C0  1  0.48651524  0.25416428  0.43098331  1
  C  C1  1  0.99442022  0.25401361  0.05744960  1
  C  C2  1  0.50876217  0.74610463  0.56767389  1
  C  C3  1  0.01331878  0.73984833  0.94329468  1
  N  N4  1  0.54470430  0.25590347  0.59789902  1
  N  N5  1  0.04859388  0.25663771  0.88933712  1
  N  N6  1  0.45140537  0.74487353  0.40041551  1
  N  N7  1  0.95539526  0.75028267  0.10956887  1
  H  H8  1  0.59279853  0.25589984  0.35201105  1
  H  H9  1  0.41623578  0.16642572  0.41312610  1
  H  H10  1  0.40841339  0.33966736  0.40926629  1
  H  H11  1  0.61526091  0.17480707  0.62825042  1
  H  H12  1  0.61625698  0.33630695  0.62130946  1
  H  H13  1  0.44748902  0.25720222  0.67665634  1
  H  H14  1  0.10263961  0.24874162  0.13388436  1
  H  H15  1  0.91809799  0.16938549  0.07807601  1
  H  H16  1  0.92294863  0.34219233  0.08076457  1
  H  H17  1  0.11420591  0.17376914  0.85679768  1
  H  H18  1  0.12286894  0.33520771  0.86186949  1
  H  H19  1  0.94922712  0.26714328  0.81355387  1
  H  H20  1  0.40198113  0.74565933  0.64605021  1
  H  H21  1  0.58604811  0.66022377  0.59005059  1
  H  H22  1  0.57901707  0.83357529  0.58616428  1
  H  H23  1  0.38234364  0.82691836  0.36826837  1
  H  H24  1  0.37797875  0.66549854  0.37765069  1
  H  H25  1  0.54877094  0.73963558  0.32179293  1
  H  H26  1  0.90657703  0.73055963  0.86608212  1
  H  H27  1  0.08077041  0.82710129  0.91135415  1
  H  H28  1  0.09354709  0.65445780  0.93396926  1
  H  H29  1  0.87226139  0.82600300  0.12281517  1
  H  H30  1  0.89648676  0.66708759  0.15050024  1
  H  H31  1  0.05240711  0.76664276  0.18543784  1
  Mg  Mg32  1  0.41695398  0.99559268  0.98602486  1
  Mg  Mg33  1  0.99618423  0.50373832  0.50059793  1
  Al  Al34  1  0.91862931  0.99829502  0.51627222  1
  Al  Al35  1  0.49194026  0.49648930  0.00202616  1
  Br  Br36  1  0.52933480  0.21932586  0.01432211  1
  Br  Br37  1  0.22207775  0.97591477  0.21002229  1
  Br  Br38  1  0.72500700  0.98187909  0.31487689  1
  Br  Br39  1  0.01784253  0.20804077  0.46908513  1
  Br  Br40  1  0.28431272  0.02281688  0.72387468  1
  Br  Br41  1  0.79358252  0.01716237  0.76328566  1
  Br  Br42  1  0.55892328  0.77986882  0.99280212  1
  Br  Br43  1  0.75108457  0.51941171  0.30251156  1
  Br  Br44  1  0.20301407  0.51718792  0.26017288  1
  Br  Br45  1  0.03968419  0.78881610  0.52799978  1
  Br  Br46  1  0.24980801  0.48386019  0.69557609  1
  Br  Br47  1  0.79389703  0.47973855  0.73852276  1
