# generated using pymatgen
data_AlTlH12C2(Br3N)2
_symmetry_space_group_name_H-M   'P 1'
_cell_length_a   8.03596343
_cell_length_b   11.44265818
_cell_length_c   7.78075910
_cell_angle_alpha   85.47882549
_cell_angle_beta   89.99487066
_cell_angle_gamma   90.03562172
_symmetry_Int_Tables_number   1
_chemical_formula_structural   AlTlH12C2(Br3N)2
_chemical_formula_sum   'Al2 Tl2 H24 C4 Br12 N4'
_cell_volume   713.23597944
_cell_formula_units_Z   2
loop_
 _symmetry_equiv_pos_site_id
 _symmetry_equiv_pos_as_xyz
  1  'x, y, z'
loop_
 _atom_site_type_symbol
 _atom_site_label
 _atom_site_symmetry_multiplicity
 _atom_site_fract_x
 _atom_site_fract_y
 _atom_site_fract_z
 _atom_site_occupancy
  C  C0  1  0.39722942  0.24955032  0.41187261  1
  C  C1  1  0.89811863  0.25049217  0.08897332  1
  C  C2  1  0.60276728  0.75045387  0.58814073  1
  C  C3  1  0.10188721  0.74950982  0.91103766  1
  N  N4  1  0.54765231  0.24663126  0.52219929  1
  N  N5  1  0.04801104  0.25336862  0.97784638  1
  N  N6  1  0.45234371  0.75337426  0.47781476  1
  N  N7  1  0.95199481  0.74663065  0.02216465  1
  H  H8  1  0.43593661  0.25232930  0.27683589  1
  H  H9  1  0.32541159  0.16972944  0.44399364  1
  H  H10  1  0.32410390  0.32685072  0.43598723  1
  H  H11  1  0.61941912  0.17451307  0.49892102  1
  H  H12  1  0.61944365  0.32169880  0.49499776  1
  H  H13  1  0.51781460  0.24051486  0.65348710  1
  H  H14  1  0.93749278  0.24770544  0.22378868  1
  H  H15  1  0.82464080  0.17321204  0.06527005  1
  H  H16  1  0.82637690  0.33034963  0.05730001  1
  H  H17  1  0.11973518  0.17829175  0.00475691  1
  H  H18  1  0.12007977  0.32548095  0.00069377  1
  H  H19  1  0.01759750  0.25944680  0.84672344  1
  H  H20  1  0.56406102  0.74767655  0.72317756  1
  H  H21  1  0.67589057  0.67315246  0.56402667  1
  H  H22  1  0.67458707  0.83027374  0.55601807  1
  H  H23  1  0.38057809  0.82549286  0.50109355  1
  H  H24  1  0.38055150  0.67830696  0.50501621  1
  H  H25  1  0.48218124  0.75949058  0.34652695  1
  H  H26  1  0.06251302  0.75229841  0.77622216  1
  H  H27  1  0.17536430  0.82678985  0.93474370  1
  H  H28  1  0.17362962  0.66965240  0.94270822  1
  H  H29  1  0.88026840  0.82170644  0.99525557  1
  H  H30  1  0.87992852  0.67451715  0.99931641  1
  H  H31  1  0.98240826  0.74055223  0.15328778  1
  Al  Al32  1  0.50000248  0.00000241  0.00000845  1
  Al  Al33  1  0.99999792  0.50000188  0.50000324  1
  Tl  Tl34  1  0.00000087  0.00000228  0.50000827  1
  Tl  Tl35  1  0.50000005  0.50000390  1.00000084  1
  Br  Br36  1  0.47755556  0.22172930  0.94311746  1
  Br  Br37  1  0.22029750  -0.00011870  0.15109659  1
  Br  Br38  1  0.64418640  0.01636068  0.28676693  1
  Br  Br39  1  0.97700958  0.27829895  0.55721811  1
  Br  Br40  1  0.35581738  0.98364526  0.71325034  1
  Br  Br41  1  0.77970750  1.00012126  0.84892051  1
  Br  Br42  1  0.52245024  0.77827584  0.05689925  1
  Br  Br43  1  0.72051706  0.50000493  0.34850634  1
  Br  Br44  1  0.14457579  0.48368443  0.21342459  1
  Br  Br45  1  0.02298592  0.72170481  0.44279278  1
  Br  Br46  1  0.27947939  0.49999879  0.65150107  1
  Br  Br47  1  0.85542172  0.51631886  0.78658408  1
