# generated using pymatgen
data_AlHgH12C2(Br3N)2
_symmetry_space_group_name_H-M   'P 1'
_cell_length_a   8.05909299
_cell_length_b   10.93886435
_cell_length_c   8.40525708
_cell_angle_alpha   84.68330501
_cell_angle_beta   91.47813576
_cell_angle_gamma   88.41483171
_symmetry_Int_Tables_number   1
_chemical_formula_structural   AlHgH12C2(Br3N)2
_chemical_formula_sum   'Al2 Hg2 H24 C4 Br12 N4'
_cell_volume   737.21530366
_cell_formula_units_Z   2
loop_
 _symmetry_equiv_pos_site_id
 _symmetry_equiv_pos_as_xyz
  1  'x, y, z'
loop_
 _atom_site_type_symbol
 _atom_site_label
 _atom_site_symmetry_multiplicity
 _atom_site_fract_x
 _atom_site_fract_y
 _atom_site_fract_z
 _atom_site_occupancy
  C  C0  1  0.45520418  0.22463910  0.43179165  1
  C  C1  1  0.99278559  0.24265995  0.10216659  1
  C  C2  1  0.53494576  0.77943246  0.56858438  1
  C  C3  1  0.04329595  0.76578746  0.90176704  1
  N  N4  1  0.54814300  0.24186794  0.58282945  1
  N  N5  1  0.03160224  0.21812663  0.93530168  1
  N  N6  1  0.45107496  0.75777747  0.41470182  1
  N  N7  1  0.95519645  0.77147678  0.05442099  1
  H  H8  1  0.54235501  0.22520791  0.33417936  1
  H  H9  1  0.39284214  0.13683791  0.44545697  1
  H  H10  1  0.36382773  0.30061803  0.40825538  1
  H  H11  1  0.63818914  0.17309655  0.61276934  1
  H  H12  1  0.60379163  0.32615385  0.57354979  1
  H  H13  1  0.47143890  0.23967326  0.68008052  1
  H  H14  1  0.10625606  0.26728601  0.16424082  1
  H  H15  1  0.94283582  0.15921627  0.16252695  1
  H  H16  1  0.89945354  0.31761094  0.09767949  1
  H  H17  1  0.13679109  0.16131191  0.93008248  1
  H  H18  1  0.04836099  0.29774512  0.86190886  1
  H  H19  1  0.93421117  0.17248557  0.88414580  1
  H  H20  1  0.44046063  0.80075537  0.65361007  1
  H  H21  1  0.60444650  0.69573555  0.61491317  1
  H  H22  1  0.61840278  0.85615673  0.54808385  1
  H  H23  1  0.38448216  0.83546078  0.36256092  1
  H  H24  1  0.36977984  0.68632555  0.43036970  1
  H  H25  1  0.53465084  0.73417524  0.33031946  1
  H  H26  1  0.95473942  0.78965081  0.80232790  1
  H  H27  1  0.14355753  0.83133013  0.89824446  1
  H  H28  1  0.09334439  0.67235648  0.89679676  1
  H  H29  1  0.92051780  0.86074171  0.07441468  1
  H  H30  1  0.84494494  0.72448178  0.05346330  1
  H  H31  1  0.02786904  0.73437407  0.15148981  1
  Al  Al32  1  0.51470050  0.97376338  0.00273829  1
  Al  Al33  1  0.89279445  0.50384832  0.53606702  1
  Hg  Hg34  1  0.01884050  0.00266183  0.50090470  1
  Hg  Hg35  1  0.36106447  0.46651887  0.96873125  1
  Br  Br36  1  0.53399765  0.25451724  0.00626968  1
  Br  Br37  1  0.26728781  0.98067304  0.17599711  1
  Br  Br38  1  0.70221783  0.98005064  0.23394240  1
  Br  Br39  1  0.01554958  0.31028902  0.52216333  1
  Br  Br40  1  0.32415370  0.02793015  0.77386774  1
  Br  Br41  1  0.75651131  0.01698683  0.81818700  1
  Br  Br42  1  0.53676908  0.75137179  0.99635632  1
  Br  Br43  1  0.67376810  0.50137351  0.34831354  1
  Br  Br44  1  0.21648598  0.53104025  0.21069483  1
  Br  Br45  1  0.00267301  0.69682673  0.47469738  1
  Br  Br46  1  0.33931520  0.50226630  0.66637932  1
  Br  Br47  1  0.81409734  0.49940505  0.80195324  1
