# generated using pymatgen
data_AlH12AuC2(Br3N)2
_symmetry_space_group_name_H-M   'P 1'
_cell_length_a   7.64395029
_cell_length_b   11.60424260
_cell_length_c   7.90865441
_cell_angle_alpha   85.62794640
_cell_angle_beta   90.00701767
_cell_angle_gamma   90.01327930
_symmetry_Int_Tables_number   1
_chemical_formula_structural   AlH12AuC2(Br3N)2
_chemical_formula_sum   'Al2 H24 Au2 C4 Br12 N4'
_cell_volume   699.47407333
_cell_formula_units_Z   2
loop_
 _symmetry_equiv_pos_site_id
 _symmetry_equiv_pos_as_xyz
  1  'x, y, z'
loop_
 _atom_site_type_symbol
 _atom_site_label
 _atom_site_symmetry_multiplicity
 _atom_site_fract_x
 _atom_site_fract_y
 _atom_site_fract_z
 _atom_site_occupancy
  C  C0  1  0.41766090  0.25140859  0.40642157  1
  C  C1  1  0.91807015  0.24860839  0.09366783  1
  C  C2  1  0.58263965  0.74860030  0.59360732  1
  C  C3  1  0.08185555  0.75131423  0.90625652  1
  N  N4  1  0.56813306  0.23928727  0.52437367  1
  N  N5  1  0.06827566  0.26074617  0.97540553  1
  N  N6  1  0.43212918  0.76077091  0.47568936  1
  N  N7  1  0.93155823  0.73916172  0.02438326  1
  H  H8  1  0.46729482  0.25948404  0.27635421  1
  H  H9  1  0.33499016  0.17467877  0.42611427  1
  H  H10  1  0.34458677  0.32883274  0.43253965  1
  H  H11  1  0.64152893  0.16681683  0.49997511  1
  H  H12  1  0.64969517  0.31077424  0.50755842  1
  H  H13  1  0.53028165  0.23049191  0.65134747  1
  H  H14  1  0.96805547  0.24049060  0.22361359  1
  H  H15  1  0.84486340  0.17118454  0.06770942  1
  H  H16  1  0.83549938  0.32538566  0.07413972  1
  H  H17  1  0.14985076  0.18926415  0.99215065  1
  H  H18  1  0.14178146  0.33316691  -0.00038242  1
  H  H19  1  0.03022435  0.26956091  0.84849012  1
  H  H20  1  0.53295280  0.74052306  0.72364682  1
  H  H21  1  0.65568388  0.67114031  0.56756558  1
  H  H22  1  0.66525685  0.82534437  0.57392892  1
  H  H23  1  0.35870027  0.83323419  0.50009194  1
  H  H24  1  0.35054400  0.68931682  0.49259277  1
  H  H25  1  0.46986550  0.76955964  0.34867679  1
  H  H26  1  0.03198170  0.75938466  0.77626873  1
  H  H27  1  0.15506661  0.82874451  0.93222505  1
  H  H28  1  0.16447766  0.67458012  0.92575821  1
  H  H29  1  0.85002403  0.81062400  0.00760269  1
  H  H30  1  0.85805546  0.66664440  1.00009128  1
  H  H31  1  0.96958908  0.73045146  0.15133312  1
  Al  Al32  1  0.50006592  0.00006333  0.00022395  1
  Al  Al33  1  0.00354238  0.49981482  0.49552799  1
  Au  Au34  1  0.99991002  0.00005656  0.49989650  1
  Au  Au35  1  0.49885839  0.50002889  0.00230410  1
  Br  Br36  1  0.49183624  0.20975522  0.94190400  1
  Br  Br37  1  0.23317153  0.00582280  0.15690318  1
  Br  Br38  1  0.71975656  0.00954880  0.33907419  1
  Br  Br39  1  0.99197070  0.29044004  0.55787892  1
  Br  Br40  1  0.27994528  0.99049060  0.66079514  1
  Br  Br41  1  0.76667974  0.99429473  0.84307612  1
  Br  Br42  1  0.50805460  0.79035183  0.05816370  1
  Br  Br43  1  0.73368092  0.49436711  0.34329634  1
  Br  Br44  1  0.21757914  0.49052875  0.16249407  1
  Br  Br45  1  0.00893018  0.70982334  0.44147748  1
  Br  Br46  1  0.26713105  0.50575113  0.65734401  1
  Br  Br47  1  0.77773855  0.50936386  0.84073975  1
