# generated using pymatgen
data_AlSbH12C2(Br3N)2
_symmetry_space_group_name_H-M   'P 1'
_cell_length_a   9.17516461
_cell_length_b   11.85256930
_cell_length_c   7.36999191
_cell_angle_alpha   100.81920305
_cell_angle_beta   89.99233182
_cell_angle_gamma   90.04785530
_symmetry_Int_Tables_number   1
_chemical_formula_structural   AlSbH12C2(Br3N)2
_chemical_formula_sum   'Al2 Sb2 H24 C4 Br12 N4'
_cell_volume   787.23418222
_cell_formula_units_Z   2
loop_
 _symmetry_equiv_pos_site_id
 _symmetry_equiv_pos_as_xyz
  1  'x, y, z'
loop_
 _atom_site_type_symbol
 _atom_site_label
 _atom_site_symmetry_multiplicity
 _atom_site_fract_x
 _atom_site_fract_y
 _atom_site_fract_z
 _atom_site_occupancy
  C  C0  1  0.43651358  0.26802131  0.51115472  1
  C  C1  1  0.93682993  0.23223577  0.98851809  1
  C  C2  1  0.55683430  0.75203051  0.48416459  1
  C  C3  1  0.05618474  0.74774507  0.01621200  1
  N  N4  1  0.58040660  0.25617693  0.59879297  1
  N  N5  1  0.08084945  0.24393177  0.90099659  1
  N  N6  1  0.41709771  0.71227442  0.39123711  1
  N  N7  1  0.91653758  0.78753763  0.10918281  1
  H  H8  1  0.45408137  0.28799690  0.37386574  1
  H  H9  1  0.37745120  0.18672727  0.49949179  1
  H  H10  1  0.37663151  0.33830942  0.59711829  1
  H  H11  1  0.64467530  0.19279266  0.51706685  1
  H  H12  1  0.63649466  0.33312175  0.61732565  1
  H  H13  1  0.56749823  0.23489135  0.72870844  1
  H  H14  1  0.95419600  0.21239244  0.12591833  1
  H  H15  1  0.87681316  0.16191432  0.90264481  1
  H  H16  1  0.87801921  0.31354764  0.99991208  1
  H  H17  1  0.13672214  0.16697086  0.88280529  1
  H  H18  1  0.14516949  0.30736534  0.98272009  1
  H  H19  1  0.06811111  0.26507675  0.77097670  1
  H  H20  1  0.53560437  0.78725713  0.62967087  1
  H  H21  1  0.62988551  0.67806830  0.47244447  1
  H  H22  1  0.60447220  0.81837922  0.41705186  1
  H  H23  1  0.34901989  0.78048796  0.38492924  1
  H  H24  1  0.36364595  0.65745646  0.46415260  1
  H  H25  1  0.43650657  0.66587356  0.25394082  1
  H  H26  1  0.03486880  0.71247784  0.87073586  1
  H  H27  1  0.12938462  0.82170728  0.02783400  1
  H  H28  1  0.10369647  0.68144095  0.08339158  1
  H  H29  1  0.86320331  0.84231605  0.03621849  1
  H  H30  1  0.84830625  0.71935063  0.11566004  1
  H  H31  1  0.93609246  0.83402762  0.24641629  1
  Al  Al32  1  0.40560184  0.01040339  0.97250974  1
  Al  Al33  1  0.90554552  0.48956578  0.52705763  1
  Sb  Sb34  1  0.97917613  0.99384806  0.52509936  1
  Sb  Sb35  1  0.47890142  0.50618670  0.97487367  1
  Br  Br36  1  0.54692161  0.17562949  0.01383787  1
  Br  Br37  1  0.20282223  0.05469786  0.16425538  1
  Br  Br38  1  0.76087453  0.05034478  0.32775589  1
  Br  Br39  1  0.04651481  0.32434571  0.48610082  1
  Br  Br40  1  0.32607416  0.98374952  0.66491305  1
  Br  Br41  1  0.81003898  0.92367402  0.76824969  1
  Br  Br42  1  0.50335531  0.84170551  0.02894400  1
  Br  Br43  1  0.70309378  0.44522871  0.33468099  1
  Br  Br44  1  0.26077404  0.44978070  0.17282192  1
  Br  Br45  1  0.00362999  0.65844882  0.47133670  1
  Br  Br46  1  0.30955199  0.57646949  0.73224349  1
  Br  Br47  1  0.82534375  0.51609660  0.83435737  1
