# generated using pymatgen
data_AlInH12C2(Br3N)2
_symmetry_space_group_name_H-M   'P 1'
_cell_length_a   8.02661105
_cell_length_b   11.38007975
_cell_length_c   7.76839608
_cell_angle_alpha   85.83065838
_cell_angle_beta   89.99625752
_cell_angle_gamma   90.03771482
_symmetry_Int_Tables_number   1
_chemical_formula_structural   AlInH12C2(Br3N)2
_chemical_formula_sum   'Al2 In2 H24 C4 Br12 N4'
_cell_volume   707.71420740
_cell_formula_units_Z   2
loop_
 _symmetry_equiv_pos_site_id
 _symmetry_equiv_pos_as_xyz
  1  'x, y, z'
loop_
 _atom_site_type_symbol
 _atom_site_label
 _atom_site_symmetry_multiplicity
 _atom_site_fract_x
 _atom_site_fract_y
 _atom_site_fract_z
 _atom_site_occupancy
  C  C0  1  0.39823816  0.24938828  0.41307246  1
  C  C1  1  0.89914394  0.25065782  0.08774528  1
  C  C2  1  0.60175828  0.75061633  0.58694076  1
  C  C3  1  0.10086201  0.74934423  0.91226589  1
  N  N4  1  0.54874725  0.24676666  0.52359614  1
  N  N5  1  0.04912160  0.25321692  0.97642832  1
  N  N6  1  0.45124887  0.75323840  0.47641752  1
  N  N7  1  0.95088455  0.74678234  0.02358321  1
  H  H8  1  0.43709372  0.25208031  0.27790457  1
  H  H9  1  0.32622514  0.16923917  0.44470248  1
  H  H10  1  0.32505028  0.32714791  0.43754389  1
  H  H11  1  0.62059791  0.17412873  0.50034643  1
  H  H12  1  0.62073099  0.32197490  0.49615035  1
  H  H13  1  0.51882592  0.24132593  0.65492705  1
  H  H14  1  0.93866737  0.24797664  0.22269038  1
  H  H15  1  0.82559810  0.17291176  0.06371021  1
  H  H16  1  0.82721305  0.33083724  0.05652942  1
  H  H17  1  0.12102877  0.17800189  0.00358980  1
  H  H18  1  0.12127975  0.32585050  0.99923175  1
  H  H19  1  0.01861398  0.25861421  0.84525868  1
  H  H20  1  0.56290354  0.74792555  0.72210870  1
  H  H21  1  0.67494455  0.67285551  0.56246983  1
  H  H22  1  0.67377298  0.83076430  0.55530930  1
  H  H23  1  0.37939891  0.82587715  0.49966741  1
  H  H24  1  0.37926448  0.67803083  0.50386319  1
  H  H25  1  0.48117014  0.75867928  0.34508673  1
  H  H26  1  0.06133836  0.75202711  0.77732078  1
  H  H27  1  0.17440684  0.82709040  0.93630347  1
  H  H28  1  0.17279397  0.66916504  0.94347909  1
  H  H29  1  0.87897491  0.82199605  0.99642322  1
  H  H30  1  0.87872882  0.67414734  0.00077893  1
  H  H31  1  0.98139217  0.74138468  0.15475290  1
  Al  Al32  1  0.50000233  0.00000236  0.00000821  1
  Al  Al33  1  0.99999778  0.50000186  0.50000291  1
  In  In34  1  0.00000004  0.00000253  0.50000838  1
  In  In35  1  0.50000095  0.50000359  0.99999966  1
  Br  Br36  1  0.47854859  0.22318408  0.94557661  1
  Br  Br37  1  0.22182379  0.00038202  0.15681514  1
  Br  Br38  1  0.64959879  0.01555262  0.28557053  1
  Br  Br39  1  0.97799079  0.27684993  0.55476271  1
  Br  Br40  1  0.35040517  0.98445349  0.71444668  1
  Br  Br41  1  0.77818140  0.99962064  0.84320189  1
  Br  Br42  1  0.52145741  0.77682114  0.05443990  1
  Br  Br43  1  0.72202417  0.49950342  0.34281337  1
  Br  Br44  1  0.14996784  0.48449101  0.21461531  1
  Br  Br45  1  0.02200462  0.72315370  0.44524869  1
  Br  Br46  1  0.27797172  0.50050021  0.65719467  1
  Br  Br47  1  0.85002901  0.51551228  0.78539378  1
