# generated using pymatgen
data_AlCdH12C2(Br3N)2
_symmetry_space_group_name_H-M   'P 1'
_cell_length_a   7.88116211
_cell_length_b   10.64791239
_cell_length_c   8.50279862
_cell_angle_alpha   85.67131974
_cell_angle_beta   90.20707164
_cell_angle_gamma   90.10699890
_symmetry_Int_Tables_number   1
_chemical_formula_structural   AlCdH12C2(Br3N)2
_chemical_formula_sum   'Al2 Cd2 H24 C4 Br12 N4'
_cell_volume   711.49626710
_cell_formula_units_Z   2
loop_
 _symmetry_equiv_pos_site_id
 _symmetry_equiv_pos_as_xyz
  1  'x, y, z'
loop_
 _atom_site_type_symbol
 _atom_site_label
 _atom_site_symmetry_multiplicity
 _atom_site_fract_x
 _atom_site_fract_y
 _atom_site_fract_z
 _atom_site_occupancy
  C  C0  1  0.50067763  0.24672906  0.41809320  1
  C  C1  1  0.99687865  0.26377577  0.06849658  1
  C  C2  1  0.50690340  0.75560599  0.58589286  1
  C  C3  1  0.00379494  0.73128302  0.93574277  1
  N  N4  1  0.54075130  0.25743360  0.58759431  1
  N  N5  1  0.03827259  0.25677101  0.89906514  1
  N  N6  1  0.47212896  0.73291037  0.41830464  1
  N  N7  1  0.95337936  0.75973901  0.09742096  1
  H  H8  1  0.61958982  0.24223849  0.35300533  1
  H  H9  1  0.42624348  0.16101131  0.40622517  1
  H  H10  1  0.42728913  0.32950414  0.37458439  1
  H  H11  1  0.60445109  0.17879351  0.63872058  1
  H  H12  1  0.61763567  0.33533454  0.60495108  1
  H  H13  1  0.43160755  0.26892565  0.65200421  1
  H  H14  1  0.11525226  0.26534206  0.13567778  1
  H  H15  1  0.92114902  0.18121610  0.10866869  1
  H  H16  1  0.92479091  0.35006985  0.08233888  1
  H  H17  1  0.10169600  0.17460570  0.87698030  1
  H  H18  1  0.11355211  0.33205924  0.85474694  1
  H  H19  1  0.92979788  0.25950016  0.83022106  1
  H  H20  1  0.38635337  0.77229616  0.64389236  1
  H  H21  1  0.56978695  0.67252427  0.64273557  1
  H  H22  1  0.58921688  0.83824964  0.58962869  1
  H  H23  1  0.43117055  0.81376992  0.35412446  1
  H  H24  1  0.37884270  0.66449209  0.40693790  1
  H  H25  1  0.57982960  0.70094704  0.36394517  1
  H  H26  1  0.89051393  0.70551434  0.87071259  1
  H  H27  1  0.06279071  0.81488454  0.87624015  1
  H  H28  1  0.09395045  0.65285577  0.94406552  1
  H  H29  1  0.86527599  0.83216446  0.09755313  1
  H  H30  1  0.89946429  0.68132873  0.15988898  1
  H  H31  1  0.05607523  0.78788080  0.16259226  1
  Al  Al32  1  0.41674901  0.00144002  0.99127501  1
  Al  Al33  1  0.00893239  0.48088513  0.48980111  1
  Cd  Cd34  1  0.91626553  0.98331284  0.51954147  1
  Cd  Cd35  1  0.50398896  0.50224198  0.99091390  1
  Br  Br36  1  0.50899850  0.21067290  0.00303106  1
  Br  Br37  1  0.22445899  0.98426461  0.20577326  1
  Br  Br38  1  0.72314371  0.98160340  0.27395788  1
  Br  Br39  1  0.01479219  0.24488453  0.47214319  1
  Br  Br40  1  0.26986400  0.02141094  0.74570794  1
  Br  Br41  1  0.77973087  0.02477743  0.78611594  1
  Br  Br42  1  0.51415657  0.79278202  0.99837861  1
  Br  Br43  1  0.76392101  0.51989443  0.30464206  1
  Br  Br44  1  0.20650858  0.52281231  0.26614656  1
  Br  Br45  1  0.04201768  0.75427443  0.51963324  1
  Br  Br46  1  0.25239708  0.47696215  0.68001931  1
  Br  Br47  1  0.80498624  0.47810282  0.71216441  1
