# generated using pymatgen
data_AlAgH12C2(Br3N)2
_symmetry_space_group_name_H-M   'P 1'
_cell_length_a   7.73102830
_cell_length_b   10.29755986
_cell_length_c   8.25998787
_cell_angle_alpha   86.93900812
_cell_angle_beta   90.00505263
_cell_angle_gamma   90.00373090
_symmetry_Int_Tables_number   1
_chemical_formula_structural   AlAgH12C2(Br3N)2
_chemical_formula_sum   'Al2 Ag2 H24 C4 Br12 N4'
_cell_volume   656.64543016
_cell_formula_units_Z   2
loop_
 _symmetry_equiv_pos_site_id
 _symmetry_equiv_pos_as_xyz
  1  'x, y, z'
loop_
 _atom_site_type_symbol
 _atom_site_label
 _atom_site_symmetry_multiplicity
 _atom_site_fract_x
 _atom_site_fract_y
 _atom_site_fract_z
 _atom_site_occupancy
  C  C0  1  0.49267689  0.24900566  0.42355405  1
  C  C1  1  0.99280036  0.25106180  0.07637139  1
  C  C2  1  0.51338951  0.75923871  0.57229066  1
  C  C3  1  0.01331627  0.74074691  0.92780685  1
  N  N4  1  0.54684652  0.24903573  0.59547267  1
  N  N5  1  0.04685066  0.25087143  0.90443887  1
  N  N6  1  0.46149889  0.73788189  0.40347094  1
  N  N7  1  0.96144060  0.76217806  0.09660259  1
  H  H8  1  0.60816121  0.24972320  0.34753565  1
  H  H9  1  0.41542617  0.16198619  0.40529084  1
  H  H10  1  0.41548570  0.33623233  0.39517665  1
  H  H11  1  0.62244248  0.16907285  0.63075442  1
  H  H12  1  0.61846083  0.33142477  0.62062508  1
  H  H13  1  0.44159603  0.24603334  0.67256056  1
  H  H14  1  0.10833685  0.25049910  0.15232711  1
  H  H15  1  0.91570652  0.16381283  0.10493549  1
  H  H16  1  0.91548287  0.33805960  0.09451560  1
  H  H17  1  0.11858908  0.16851975  0.87941836  1
  H  H18  1  0.12228080  0.33088381  0.86895170  1
  H  H19  1  0.94153952  0.25363320  0.82741449  1
  H  H20  1  0.39724303  0.77500597  0.64375643  1
  H  H21  1  0.58328148  0.67354459  0.62109579  1
  H  H22  1  0.59707204  0.84489195  0.57291125  1
  H  H23  1  0.40359317  0.81979728  0.34738001  1
  H  H24  1  0.37344584  0.66188271  0.39648429  1
  H  H25  1  0.56645025  0.71322681  0.33365738  1
  H  H26  1  0.89715454  0.72502521  0.85632393  1
  H  H27  1  0.08330982  0.82638688  0.87898395  1
  H  H28  1  0.09689329  0.65504191  0.92725023  1
  H  H29  1  0.87345073  0.83821640  0.10352915  1
  H  H30  1  0.90346642  0.68029898  0.15272041  1
  H  H31  1  0.06641254  0.78681906  0.16642366  1
  Al  Al32  1  0.48827726  0.00103899  0.00023924  1
  Al  Al33  1  0.98825638  0.49896479  0.49980997  1
  Ag  Ag34  1  0.91363440  0.99388735  0.51588361  1
  Ag  Ag35  1  0.41351550  0.50608859  0.98420585  1
  Br  Br36  1  0.50422599  0.25136112  0.00932157  1
  Br  Br37  1  0.25078885  0.98353141  0.19760677  1
  Br  Br38  1  0.70227905  0.98559670  0.24258334  1
  Br  Br39  1  0.00414470  0.24864512  0.49058212  1
  Br  Br40  1  0.29626051  0.01591920  0.76288908  1
  Br  Br41  1  0.76183835  0.01632269  0.81899241  1
  Br  Br42  1  0.52574726  0.75126037  0.98976749  1
  Br  Br43  1  0.75078312  0.51651788  0.30239254  1
  Br  Br44  1  0.20225975  0.51450190  0.25748026  1
  Br  Br45  1  0.02580834  0.74874363  0.51034993  1
  Br  Br46  1  0.26184379  0.48362604  0.68104822  1
  Br  Br47  1  0.79625957  0.48403358  0.73711379  1
