# generated using pymatgen
data_BeH12C3(I3N)2
_symmetry_space_group_name_H-M   'P 1'
_cell_length_a   8.37497676
_cell_length_b   11.41734238
_cell_length_c   8.43298735
_cell_angle_alpha   90.66162594
_cell_angle_beta   89.88517728
_cell_angle_gamma   89.60522350
_symmetry_Int_Tables_number   1
_chemical_formula_structural   BeH12C3(I3N)2
_chemical_formula_sum   'Be2 H24 C6 I12 N4'
_cell_volume   806.28740541
_cell_formula_units_Z   2
loop_
 _symmetry_equiv_pos_site_id
 _symmetry_equiv_pos_as_xyz
  1  'x, y, z'
loop_
 _atom_site_type_symbol
 _atom_site_label
 _atom_site_symmetry_multiplicity
 _atom_site_fract_x
 _atom_site_fract_y
 _atom_site_fract_z
 _atom_site_occupancy
  C  C0  1  0.44589629  0.24738401  0.44913174  1
  C  C1  1  0.93256825  0.24857675  0.06914709  1
  C  C2  1  0.55866249  0.75664460  0.55473127  1
  C  C3  1  0.06571430  0.73878979  0.93076550  1
  N  N4  1  0.58342084  0.24274727  0.55959974  1
  N  N5  1  0.07501995  0.24751936  0.96415629  1
  N  N6  1  0.42237050  0.74605345  0.44308432  1
  N  N7  1  0.92426011  0.75683707  0.03466907  1
  H  H8  1  0.49159851  0.25946919  0.32867466  1
  H  H9  1  0.37940512  0.16547603  0.45746906  1
  H  H10  1  0.36930754  0.32158139  0.48272184  1
  H  H11  1  0.65842101  0.17252625  0.53316175  1
  H  H12  1  0.65179443  0.31798538  0.55115589  1
  H  H13  1  0.54733905  0.23458143  0.67735866  1
  H  H14  1  0.97279011  0.24917916  0.19259276  1
  H  H15  1  0.86253472  0.17004003  0.04439916  1
  H  H16  1  0.86176819  0.32728194  0.04536711  1
  H  H17  1  0.14393473  0.17293783  0.98289775  1
  H  H18  1  0.14736525  0.31890071  0.98867286  1
  H  H19  1  0.04502557  0.24951774  0.84398195  1
  H  H20  1  0.51134048  0.76587726  0.67545348  1
  H  H21  1  0.63276131  0.67763894  0.54454528  1
  H  H22  1  0.62819674  0.83387761  0.52389417  1
  H  H23  1  0.34736378  0.81874467  0.45184577  1
  H  H24  1  0.35380919  0.67353606  0.46974298  1
  H  H25  1  0.45921898  0.73738450  0.32547621  1
  H  H26  1  0.02501395  0.73105534  0.80781089  1
  H  H27  1  0.14489499  0.81401897  0.94415225  1
  H  H28  1  0.12714921  0.65840428  0.96617727  1
  H  H29  1  0.86443002  0.83369253  0.00636839  1
  H  H30  1  0.84332130  0.68897346  0.01909647  1
  H  H31  1  0.95432675  0.76114750  0.15463776  1
  Be  Be32  1  0.46719330  0.06584934  0.13240249  1
  Be  Be33  1  0.96956939  0.55317469  0.34548548  1
  C  C34  1  0.01675965  0.02778340  0.57538521  1
  C  C35  1  0.51563774  0.53242206  0.93236952  1
  I  I36  1  0.49625462  0.23063055  0.97900264  1
  I  I37  1  0.21521090  0.99964258  0.19302777  1
  I  I38  1  0.68922920  0.99621114  0.26477482  1
  I  I39  1  0.00985360  0.22758585  0.54643117  1
  I  I40  1  0.25773613  0.98905746  0.68750137  1
  I  I41  1  0.82642721  0.99552329  0.76648787  1
  I  I42  1  0.50221465  0.72559902  0.00953695  1
  I  I43  1  0.71712634  0.48053318  0.31057840  1
  I  I44  1  0.19979452  0.47862462  0.23193787  1
  I  I45  1  0.99400110  0.73718961  0.45801941  1
  I  I46  1  0.33239227  0.51057727  0.73194125  1
  I  I47  1  0.75959946  0.51129374  0.81247498  1
