# generated using pymatgen
data_YAlH12C2(Br3N)2
_symmetry_space_group_name_H-M   'P 1'
_cell_length_a   8.15198087
_cell_length_b   11.68450160
_cell_length_c   7.92279293
_cell_angle_alpha   92.59560836
_cell_angle_beta   90.00440907
_cell_angle_gamma   89.98020187
_symmetry_Int_Tables_number   1
_chemical_formula_structural   YAlH12C2(Br3N)2
_chemical_formula_sum   'Y2 Al2 H24 C4 Br12 N4'
_cell_volume   753.88625822
_cell_formula_units_Z   2
loop_
 _symmetry_equiv_pos_site_id
 _symmetry_equiv_pos_as_xyz
  1  'x, y, z'
loop_
 _atom_site_type_symbol
 _atom_site_label
 _atom_site_symmetry_multiplicity
 _atom_site_fract_x
 _atom_site_fract_y
 _atom_site_fract_z
 _atom_site_occupancy
  C  C0  1  0.39528437  0.25042802  0.41322171  1
  C  C1  1  0.89631555  0.24980344  0.08776792  1
  C  C2  1  0.60471334  0.74957680  0.58679014  1
  C  C3  1  0.10368925  0.75019862  0.91224545  1
  N  N4  1  0.54321660  0.25156108  0.52229303  1
  N  N5  1  0.04363144  0.24847663  0.97784217  1
  N  N6  1  0.45678134  0.74844391  0.47771863  1
  N  N7  1  0.95637516  0.75152154  0.02217359  1
  H  H8  1  0.43438540  0.24856267  0.28100924  1
  H  H9  1  0.32362797  0.17406268  0.43761013  1
  H  H10  1  0.32384313  0.32798862  0.44256236  1
  H  H11  1  0.61368967  0.17859595  0.49576344  1
  H  H12  1  0.61417864  0.32282664  0.49886738  1
  H  H13  1  0.51338292  0.25419857  0.65062907  1
  H  H14  1  0.93616773  0.25171665  0.21974093  1
  H  H15  1  0.82467937  0.17229439  0.05898701  1
  H  H16  1  0.82455342  0.32623171  0.06371348  1
  H  H17  1  0.11468232  0.17711858  0.00096312  1
  H  H18  1  0.11428790  0.32136027  0.00397148  1
  H  H19  1  0.01316119  0.24582341  0.84969105  1
  H  H20  1  0.56561314  0.75144382  0.71900232  1
  H  H21  1  0.67615316  0.67201497  0.55745071  1
  H  H22  1  0.67637156  0.82594096  0.56239957  1
  H  H23  1  0.38630819  0.82140946  0.50424956  1
  H  H24  1  0.38581866  0.67717851  0.50114532  1
  H  H25  1  0.48661404  0.74580674  0.34938344  1
  H  H26  1  0.06383475  0.74828782  0.78027327  1
  H  H27  1  0.17532496  0.82770740  0.94102899  1
  H  H28  1  0.17545248  0.67377002  0.93629451  1
  H  H29  1  0.88532130  0.82287863  0.99905575  1
  H  H30  1  0.88572097  0.67863705  0.99604318  1
  H  H31  1  0.98684722  0.75417391  0.15032431  1
  Al  Al32  1  0.50000317  0.00000486  0.00000851  1
  Al  Al33  1  0.99999329  0.50000153  0.49999508  1
  Y  Y34  1  0.00000103  0.00000165  0.50000934  1
  Y  Y35  1  0.49999906  0.50000470  0.99999983  1
  Br  Br36  1  0.47328591  0.26242156  0.93852291  1
  Br  Br37  1  0.16152826  0.01927449  0.19062429  1
  Br  Br38  1  0.69600766  0.00670486  0.33705031  1
  Br  Br39  1  0.97272082  0.23758991  0.56192071  1
  Br  Br40  1  0.30399475  0.99330007  0.66296796  1
  Br  Br41  1  0.83847587  0.98072501  0.80939457  1
  Br  Br42  1  0.52671693  0.73758689  0.06148788  1
  Br  Br43  1  0.66145434  0.48064562  0.30946690  1
  Br  Br44  1  0.19599636  0.49342888  0.16290768  1
  Br  Br45  1  0.02727871  0.76241251  0.43809725  1
  Br  Br46  1  0.33853881  0.51935948  0.69053654  1
  Br  Br47  1  0.80400161  0.50657675  0.83709457  1
