# generated using pymatgen
data_AlAsH12C2(Br3N)2
_symmetry_space_group_name_H-M   'P 1'
_cell_length_a   8.32528079
_cell_length_b   11.40942224
_cell_length_c   7.80809547
_cell_angle_alpha   89.36549005
_cell_angle_beta   89.93876748
_cell_angle_gamma   90.16390659
_symmetry_Int_Tables_number   1
_chemical_formula_structural   AlAsH12C2(Br3N)2
_chemical_formula_sum   'Al2 As2 H24 C4 Br12 N4'
_cell_volume   741.61582038
_cell_formula_units_Z   2
loop_
 _symmetry_equiv_pos_site_id
 _symmetry_equiv_pos_as_xyz
  1  'x, y, z'
loop_
 _atom_site_type_symbol
 _atom_site_label
 _atom_site_symmetry_multiplicity
 _atom_site_fract_x
 _atom_site_fract_y
 _atom_site_fract_z
 _atom_site_occupancy
  C  C0  1  0.44987197  0.25520092  0.45986776  1
  C  C1  1  0.94815594  0.24703498  0.04177839  1
  C  C2  1  0.55559320  0.74871021  0.54287784  1
  C  C3  1  0.05360600  0.75192969  0.95628070  1
  N  N4  1  0.60182882  0.24026165  0.55811257  1
  N  N5  1  0.10320336  0.26254597  0.94902239  1
  N  N6  1  0.40000887  0.75817992  0.44965557  1
  N  N7  1  0.90082752  0.74193970  0.05466979  1
  H  H8  1  0.47970437  0.26486012  0.32391098  1
  H  H9  1  0.37498132  0.17727858  0.47997775  1
  H  H10  1  0.38785486  0.33325032  0.50579121  1
  H  H11  1  0.66639345  0.16910495  0.51125135  1
  H  H12  1  0.67494870  0.31341196  0.54575403  1
  H  H13  1  0.58015973  0.22581371  0.68797362  1
  H  H14  1  0.97325802  0.23784546  0.17886583  1
  H  H15  1  0.88893587  0.16770939  0.99547304  1
  H  H16  1  0.87329848  0.32410603  0.01695684  1
  H  H17  1  0.17700403  0.19101461  0.96918546  1
  H  H18  1  0.16419787  0.33574365  0.99374714  1
  H  H19  1  0.08572209  0.27397960  0.81799258  1
  H  H20  1  0.53033857  0.74275832  0.68018177  1
  H  H21  1  0.61699812  0.66932419  0.50116550  1
  H  H22  1  0.62813637  0.82650601  0.51349529  1
  H  H23  1  0.33621880  0.83084973  0.48946460  1
  H  H24  1  0.32782433  0.68577186  0.47467143  1
  H  H25  1  0.41772746  0.76619996  0.31785740  1
  H  H26  1  0.02424765  0.75993260  0.82026781  1
  H  H27  1  0.11687736  0.83036782  0.99878682  1
  H  H28  1  0.12608694  0.67365275  0.97999742  1
  H  H29  1  0.82882976  0.81445456  0.03168418  1
  H  H30  1  0.83623042  0.66872376  0.01522226  1
  H  H31  1  0.92099355  0.73508393  0.18582596  1
  Al  Al32  1  0.40761749  0.99739884  0.98852166  1
  Al  Al33  1  0.98359180  0.49117605  0.40346416  1
  As  As34  1  0.96342668  0.99701488  0.52715882  1
  As  As35  1  0.51461775  0.49905372  0.95830043  1
  Br  Br36  1  0.51957128  0.18625836  0.98671922  1
  Br  Br37  1  0.20313801  0.01720493  0.19541593  1
  Br  Br38  1  0.73600570  0.01453689  0.32311303  1
  Br  Br39  1  0.01143854  0.30623222  0.53444956  1
  Br  Br40  1  0.29500591  0.98991023  0.71128648  1
  Br  Br41  1  0.80771497  0.98016479  0.79230123  1
  Br  Br42  1  0.50208703  0.80626801  0.03344494  1
  Br  Br43  1  0.72083542  0.47859114  0.29320447  1
  Br  Br44  1  0.19243556  0.48897694  0.19758077  1
  Br  Br45  1  0.99781742  0.68876497  0.48573586  1
  Br  Br46  1  0.32342226  0.51798104  0.71770627  1
  Br  Br47  1  0.77123410  0.51699834  0.80412849  1
