# generated using pymatgen
data_AlGaH12C2(Br3N)2
_symmetry_space_group_name_H-M   'P 1'
_cell_length_a   8.40212515
_cell_length_b   10.18825270
_cell_length_c   8.72582972
_cell_angle_alpha   89.68791111
_cell_angle_beta   90.09614815
_cell_angle_gamma   90.06880824
_symmetry_Int_Tables_number   1
_chemical_formula_structural   AlGaH12C2(Br3N)2
_chemical_formula_sum   'Al2 Ga2 H24 C4 Br12 N4'
_cell_volume   746.94431297
_cell_formula_units_Z   2
loop_
 _symmetry_equiv_pos_site_id
 _symmetry_equiv_pos_as_xyz
  1  'x, y, z'
loop_
 _atom_site_type_symbol
 _atom_site_label
 _atom_site_symmetry_multiplicity
 _atom_site_fract_x
 _atom_site_fract_y
 _atom_site_fract_z
 _atom_site_occupancy
  C  C0  1  0.48909260  0.25997577  0.42712285  1
  C  C1  1  0.98694781  0.23578308  0.07299859  1
  C  C2  1  0.50236490  0.75035405  0.56830901  1
  C  C3  1  0.00336041  0.74673273  0.93061626  1
  N  N4  1  0.53099259  0.24117159  0.59128646  1
  N  N5  1  0.03706770  0.26447273  0.91304960  1
  N  N6  1  0.45835124  0.73056914  0.40470647  1
  N  N7  1  0.95657728  0.77268958  0.09208907  1
  H  H8  1  0.59878805  0.26394180  0.36005987  1
  H  H9  1  0.41667975  0.17701838  0.38887788  1
  H  H10  1  0.42150646  0.35133488  0.41416298  1
  H  H11  1  0.59807185  0.15631391  0.61253258  1
  H  H12  1  0.59935422  0.31892503  0.63161153  1
  H  H13  1  0.43058650  0.23843358  0.65962894  1
  H  H14  1  0.09300174  0.21640724  0.14217134  1
  H  H15  1  0.90766042  0.15027883  0.07301366  1
  H  H16  1  0.92467013  0.32115388  0.11895961  1
  H  H17  1  0.09380994  0.18422347  0.86443047  1
  H  H18  1  0.11674522  0.34330898  0.90387385  1
  H  H19  1  0.94068186  0.28614671  0.84349699  1
  H  H20  1  0.39387102  0.76350898  0.63543404  1
  H  H21  1  0.56581637  0.66330647  0.60947828  1
  H  H22  1  0.57941135  0.83697480  0.57600508  1
  H  H23  1  0.40392182  0.81299926  0.35775750  1
  H  H24  1  0.38043779  0.65236230  0.38672625  1
  H  H25  1  0.55891850  0.71320852  0.33960275  1
  H  H26  1  0.89803542  0.71662971  0.86598140  1
  H  H27  1  0.05179822  0.83705914  0.88086004  1
  H  H28  1  0.09346372  0.66900662  0.93041345  1
  H  H29  1  0.86518500  0.84104770  0.10240959  1
  H  H30  1  0.91839992  0.68808790  0.14780383  1
  H  H31  1  0.05249242  0.80911757  0.15365431  1
  Al  Al32  1  0.42792796  0.99852731  0.99824245  1
  Al  Al33  1  0.93216572  0.49966429  0.50083530  1
  Ga  Ga34  1  0.97157285  0.99862241  0.49991974  1
  Ga  Ga35  1  0.47801128  0.50013352  0.00140398  1
  Br  Br36  1  0.54591667  0.20248747  0.02533245  1
  Br  Br37  1  0.25552317  0.97501636  0.21081770  1
  Br  Br38  1  0.72683913  0.97138982  0.31077465  1
  Br  Br39  1  0.05145047  0.29635671  0.47621670  1
  Br  Br40  1  0.27328597  0.01853648  0.77377247  1
  Br  Br41  1  0.79126647  0.03231784  0.74364637  1
  Br  Br42  1  0.55544314  0.79734844  0.97696205  1
  Br  Br43  1  0.75723278  0.52247447  0.29090317  1
  Br  Br44  1  0.23115045  0.52439945  0.18773741  1
  Br  Br45  1  0.05930802  0.70102200  0.52087477  1
  Br  Br46  1  0.29631881  0.47003825  0.75715245  1
  Br  Br47  1  0.77854865  0.47919914  0.72658046  1
