# generated using pymatgen
data_AlZnH12C2(Br3N)2
_symmetry_space_group_name_H-M   'P 1'
_cell_length_a   8.31304409
_cell_length_b   10.83006106
_cell_length_c   8.05422892
_cell_angle_alpha   88.25042307
_cell_angle_beta   89.12169737
_cell_angle_gamma   88.82860220
_symmetry_Int_Tables_number   1
_chemical_formula_structural   AlZnH12C2(Br3N)2
_chemical_formula_sum   'Al2 Zn2 H24 C4 Br12 N4'
_cell_volume   724.56050553
_cell_formula_units_Z   2
loop_
 _symmetry_equiv_pos_site_id
 _symmetry_equiv_pos_as_xyz
  1  'x, y, z'
loop_
 _atom_site_type_symbol
 _atom_site_label
 _atom_site_symmetry_multiplicity
 _atom_site_fract_x
 _atom_site_fract_y
 _atom_site_fract_z
 _atom_site_occupancy
  C  C0  1  0.44043055  0.24588782  0.44933365  1
  C  C1  1  0.94396849  0.22905792  0.06350204  1
  C  C2  1  0.56351687  0.75952705  0.55638218  1
  C  C3  1  0.05394382  0.76433087  0.94064225  1
  N  N4  1  0.58520713  0.23190075  0.55542968  1
  N  N5  1  0.08950041  0.24379036  0.95596921  1
  N  N6  1  0.41032779  0.76246623  0.46332828  1
  N  N7  1  0.90944116  0.75560413  0.05140087  1
  H  H8  1  0.47896722  0.24566032  0.31889207  1
  H  H9  1  0.36143406  0.16819074  0.47721368  1
  H  H10  1  0.37938412  0.33325109  0.47776262  1
  H  H11  1  0.64352524  0.14795929  0.53716201  1
  H  H12  1  0.66646520  0.30096477  0.52679726  1
  H  H13  1  0.55587845  0.23624117  0.68175825  1
  H  H14  1  0.98234626  0.21349266  0.19208570  1
  H  H15  1  0.87791821  0.14929921  0.02322149  1
  H  H16  1  0.86878963  0.31286364  0.05142464  1
  H  H17  1  0.16168586  0.16440221  0.96149566  1
  H  H18  1  0.15798714  0.31609227  0.99562938  1
  H  H19  1  0.06070821  0.26281546  0.83288199  1
  H  H20  1  0.53543292  0.77542808  0.68744213  1
  H  H21  1  0.62357013  0.66975748  0.53979287  1
  H  H22  1  0.63978422  0.83381053  0.50785176  1
  H  H23  1  0.35144416  0.84721176  0.47236316  1
  H  H24  1  0.33395712  0.69457034  0.51034650  1
  H  H25  1  0.43046150  0.74716135  0.33726754  1
  H  H26  1  0.01328312  0.77535454  0.81233720  1
  H  H27  1  0.12356895  0.84415113  0.97449580  1
  H  H28  1  0.12618181  0.67926479  0.95541656  1
  H  H29  1  0.83434020  0.83285913  0.03364737  1
  H  H30  1  0.84358457  0.67860651  0.02279715  1
  H  H31  1  0.93903578  0.74880581  0.17600961  1
  Al  Al32  1  0.50192423  0.03352600  0.00067951  1
  Al  Al33  1  0.97524338  0.48596808  0.38893508  1
  Zn  Zn34  1  0.00137035  0.99458789  0.50075945  1
  Zn  Zn35  1  0.52895209  0.56108204  0.87761022  1
  Br  Br36  1  0.50753914  0.25637158  0.97417225  1
  Br  Br37  1  0.26250961  0.00924447  0.18286305  1
  Br  Br38  1  0.67315955  0.00142024  0.24844571  1
  Br  Br39  1  0.00907241  0.30233617  0.54523166  1
  Br  Br40  1  0.32743465  0.00150982  0.75761924  1
  Br  Br41  1  0.73834057  0.98599051  0.82285339  1
  Br  Br42  1  0.48704418  0.72933507  0.05512506  1
  Br  Br43  1  0.71190631  0.47665070  0.29791478  1
  Br  Br44  1  0.18229932  0.47884603  0.19044265  1
  Br  Br45  1  0.99748652  0.68848521  0.47656420  1
  Br  Br46  1  0.31124854  0.51160238  0.71492384  1
  Br  Br47  1  0.79842260  0.51234268  0.82407593  1
