# generated using pymatgen
data_AlCuH12C2(Br3N)2
_symmetry_space_group_name_H-M   'P 1'
_cell_length_a   8.54244780
_cell_length_b   9.86302311
_cell_length_c   8.53809819
_cell_angle_alpha   88.46989890
_cell_angle_beta   89.99722918
_cell_angle_gamma   90.00120636
_symmetry_Int_Tables_number   1
_chemical_formula_structural   AlCuH12C2(Br3N)2
_chemical_formula_sum   'Al2 Cu2 H24 C4 Br12 N4'
_cell_volume   719.11549558
_cell_formula_units_Z   2
loop_
 _symmetry_equiv_pos_site_id
 _symmetry_equiv_pos_as_xyz
  1  'x, y, z'
loop_
 _atom_site_type_symbol
 _atom_site_label
 _atom_site_symmetry_multiplicity
 _atom_site_fract_x
 _atom_site_fract_y
 _atom_site_fract_z
 _atom_site_occupancy
  C  C0  1  0.49403803  0.24157616  0.43024120  1
  C  C1  1  0.99401774  0.25844610  0.06975552  1
  C  C2  1  0.50688107  0.76218125  0.56880274  1
  C  C3  1  0.00703869  0.73781952  0.93125768  1
  N  N4  1  0.55001384  0.23172374  0.59478608  1
  N  N5  1  0.04984824  0.26823875  0.90515178  1
  N  N6  1  0.47221830  0.74996043  0.39960621  1
  N  N7  1  0.97226886  0.75008492  0.10042808  1
  H  H8  1  0.59513973  0.24615988  0.35182916  1
  H  H9  1  0.42376594  0.15194230  0.40532732  1
  H  H10  1  0.42227883  0.33299119  0.41478609  1
  H  H11  1  0.62814650  0.15174038  0.61514335  1
  H  H12  1  0.60767636  0.31918383  0.62823164  1
  H  H13  1  0.45782416  0.21904042  0.67243307  1
  H  H14  1  0.09519128  0.25401050  0.14807395  1
  H  H15  1  0.92237602  0.16697726  0.08536059  1
  H  H16  1  0.92366410  0.34803847  0.09465183  1
  H  H17  1  0.10762487  0.18081799  0.87175509  1
  H  H18  1  0.12785423  0.34829049  0.88463833  1
  H  H19  1  0.95758341  0.28073329  0.82757280  1
  H  H20  1  0.39704544  0.77285870  0.63280370  1
  H  H21  1  0.56717026  0.67052782  0.61099804  1
  H  H22  1  0.58220027  0.85090372  0.58466405  1
  H  H23  1  0.41519034  0.83471340  0.35285556  1
  H  H24  1  0.40073838  0.66680730  0.37477602  1
  H  H25  1  0.57387642  0.73852063  0.33538671  1
  H  H26  1  0.89724682  0.72709478  0.86720532  1
  H  H27  1  0.06732833  0.82947240  0.88905863  1
  H  H28  1  0.08239294  0.64910466  0.91547791  1
  H  H29  1  0.90073035  0.83321631  0.12518211  1
  H  H30  1  0.91525581  0.66532488  0.14719281  1
  H  H31  1  0.07388001  0.76159800  0.16469310  1
  Al  Al32  1  0.41541586  0.99677577  0.98994921  1
  Al  Al33  1  0.91538230  0.50329057  0.51007359  1
  Cu  Cu34  1  0.83396977  0.98036528  0.52480714  1
  Cu  Cu35  1  0.33395193  0.51944951  0.97521443  1
  Br  Br36  1  0.53012191  0.20740929  0.01123846  1
  Br  Br37  1  0.24098630  0.98116076  0.20477317  1
  Br  Br38  1  0.75838788  0.97775667  0.27330880  1
  Br  Br39  1  0.02995025  0.29260809  0.48875783  1
  Br  Br40  1  0.27040056  0.01635828  0.75507546  1
  Br  Br41  1  0.81896930  0.02502594  0.78043530  1
  Br  Br42  1  0.53759482  0.78651185  0.98194988  1
  Br  Br43  1  0.74097248  0.51895414  0.29525568  1
  Br  Br44  1  0.25842157  0.52220777  0.22672638  1
  Br  Br45  1  0.03768694  0.71351501  0.51807267  1
  Br  Br46  1  0.31894298  0.47483362  0.71957864  1
  Br  Br47  1  0.77036330  0.48375625  0.74495346  1
