# generated using pymatgen
data_ScAlH12C2(Br3N)2
_symmetry_space_group_name_H-M   'P 1'
_cell_length_a   8.04135265
_cell_length_b   11.43245528
_cell_length_c   7.80349636
_cell_angle_alpha   93.47856746
_cell_angle_beta   89.99619030
_cell_angle_gamma   89.98106597
_symmetry_Int_Tables_number   1
_chemical_formula_structural   ScAlH12C2(Br3N)2
_chemical_formula_sum   'Sc2 Al2 H24 C4 Br12 N4'
_cell_volume   716.07239024
_cell_formula_units_Z   2
loop_
 _symmetry_equiv_pos_site_id
 _symmetry_equiv_pos_as_xyz
  1  'x, y, z'
loop_
 _atom_site_type_symbol
 _atom_site_label
 _atom_site_symmetry_multiplicity
 _atom_site_fract_x
 _atom_site_fract_y
 _atom_site_fract_z
 _atom_site_occupancy
  C  C0  1  0.40498508  0.25181901  0.41515093  1
  C  C1  1  0.90566516  0.24834688  0.08518727  1
  C  C2  1  0.59501157  0.74818628  0.58486091  1
  C  C3  1  0.09433866  0.75165654  0.91482433  1
  N  N4  1  0.55676005  0.25456965  0.52314121  1
  N  N5  1  0.05707321  0.24539334  0.97661333  1
  N  N6  1  0.44323628  0.74543536  0.47687111  1
  N  N7  1  0.94293338  0.75460729  0.02340007  1
  H  H8  1  0.44242816  0.24790144  0.28014933  1
  H  H9  1  0.33207345  0.17467538  0.44261077  1
  H  H10  1  0.33365213  0.33181325  0.44509354  1
  H  H11  1  0.62838478  0.18001198  0.49530739  1
  H  H12  1  0.62796699  0.32708717  0.49810883  1
  H  H13  1  0.52851983  0.25893152  0.65405315  1
  H  H14  1  0.94352608  0.25239903  0.22002286  1
  H  H15  1  0.83423592  0.16835170  0.05568906  1
  H  H16  1  0.83264183  0.32549221  0.05778150  1
  H  H17  1  0.12831074  0.17281196  0.00148524  1
  H  H18  1  0.12886331  0.31989304  0.00422312  1
  H  H19  1  0.02847641  0.24103580  0.84585127  1
  H  H20  1  0.55756897  0.75210594  0.71986239  1
  H  H21  1  0.66634170  0.66818974  0.55492021  1
  H  H22  1  0.66792562  0.82532744  0.55739814  1
  H  H23  1  0.37161310  0.81999496  0.50470443  1
  H  H24  1  0.37202822  0.67291998  0.50190376  1
  H  H25  1  0.47147656  0.74107355  0.34595895  1
  H  H26  1  0.05647555  0.74760647  0.77998915  1
  H  H27  1  0.16576696  0.83165231  0.94432393  1
  H  H28  1  0.16736447  0.67451140  0.94222539  1
  H  H29  1  0.87169228  0.82718713  0.99853125  1
  H  H30  1  0.87114452  0.68010587  0.99578992  1
  H  H31  1  0.97153111  0.75896360  0.15416221  1
  Al  Al32  1  0.50000354  1.00000002  0.00000639  1
  Al  Al33  1  0.99999848  0.50000230  0.50000278  1
  Sc  Sc34  1  0.99999864  0.00000205  0.50000651  1
  Sc  Sc35  1  0.50000255  0.50000094  0.00000490  1
  Br  Br36  1  0.48223145  0.26846259  0.94411513  1
  Br  Br37  1  0.16355006  0.01537272  0.20689340  1
  Br  Br38  1  0.71247498  0.00321153  0.33289698  1
  Br  Br39  1  0.98176525  0.23154414  0.55593906  1
  Br  Br40  1  0.28752056  0.99679337  0.66711691  1
  Br  Br41  1  0.83644741  0.98462812  0.79312135  1
  Br  Br42  1  0.51777526  0.73153927  0.05589872  1
  Br  Br43  1  0.66352046  0.48456454  0.29312814  1
  Br  Br44  1  0.21243886  0.49673404  0.16704776  1
  Br  Br45  1  0.01823113  0.76845865  0.44407534  1
  Br  Br46  1  0.33648606  0.51543799  0.70688448  1
  Br  Br47  1  0.78756695  0.50326878  0.83296381  1
