# generated using pymatgen
data_CaAlH12C2(Br3N)2
_symmetry_space_group_name_H-M   'P 1'
_cell_length_a   8.01978461
_cell_length_b   11.44047698
_cell_length_c   7.75571515
_cell_angle_alpha   89.23234188
_cell_angle_beta   90.58266722
_cell_angle_gamma   88.14541992
_symmetry_Int_Tables_number   1
_chemical_formula_structural   CaAlH12C2(Br3N)2
_chemical_formula_sum   'Ca2 Al2 H24 C4 Br12 N4'
_cell_volume   711.11151557
_cell_formula_units_Z   2
loop_
 _symmetry_equiv_pos_site_id
 _symmetry_equiv_pos_as_xyz
  1  'x, y, z'
loop_
 _atom_site_type_symbol
 _atom_site_label
 _atom_site_symmetry_multiplicity
 _atom_site_fract_x
 _atom_site_fract_y
 _atom_site_fract_z
 _atom_site_occupancy
  C  C0  1  0.40245824  0.25104178  0.42430756  1
  C  C1  1  0.91610179  0.25165280  0.08489462  1
  C  C2  1  0.59754052  0.74896208  0.57570407  1
  C  C3  1  0.08390146  0.74835126  0.91511757  1
  N  N4  1  0.55783615  0.25902440  0.52762508  1
  N  N5  1  0.06471913  0.25958028  0.97427402  1
  N  N6  1  0.44216238  0.74097792  0.47238687  1
  N  N7  1  0.93528487  0.74042220  0.02573674  1
  H  H8  1  0.43535260  0.24973116  0.28790593  1
  H  H9  1  0.34130897  0.17052684  0.46001599  1
  H  H10  1  0.32210579  0.32749133  0.45035246  1
  H  H11  1  0.64121023  0.19139093  0.49914580  1
  H  H12  1  0.61558731  0.33723836  0.49824552  1
  H  H13  1  0.53525042  0.25519674  0.65938212  1
  H  H14  1  0.95673426  0.24918957  0.22003213  1
  H  H15  1  0.84980397  0.17275548  0.05306560  1
  H  H16  1  0.83641579  0.32964534  0.06160913  1
  H  H17  1  0.14712117  0.18964599  0.99924114  1
  H  H18  1  0.12597358  0.33658787  0.00168037  1
  H  H19  1  0.03322145  0.25916538  0.84329041  1
  H  H20  1  0.56464687  0.75027381  0.71210583  1
  H  H21  1  0.67789328  0.67251211  0.54966039  1
  H  H22  1  0.65868958  0.82947662  0.53999346  1
  H  H23  1  0.35878788  0.80861128  0.50086479  1
  H  H24  1  0.38441203  0.66276397  0.50176845  1
  H  H25  1  0.46474822  0.74480425  0.34063038  1
  H  H26  1  0.04326985  0.75081600  0.77997991  1
  H  H27  1  0.15019824  0.82724892  0.94694926  1
  H  H28  1  0.16358840  0.67035902  0.93840140  1
  H  H29  1  0.85288057  0.81035551  0.00077120  1
  H  H30  1  0.87403007  0.66341334  0.99832834  1
  H  H31  1  0.96678052  0.74083533  0.15672097  1
  Al  Al32  1  0.50000131  0.00000214  0.00000686  1
  Al  Al33  1  0.00000016  0.50000213  0.50000635  1
  Ca  Ca34  1  0.00000058  0.00000218  0.50000727  1
  Ca  Ca35  1  0.50000017  0.50000254  0.00000752  1
  Br  Br36  1  0.48973547  0.21853380  0.95295176  1
  Br  Br37  1  0.23037483  0.01403460  0.17498139  1
  Br  Br38  1  0.67742897  0.01690189  0.28270844  1
  Br  Br39  1  0.97289118  0.23602112  0.56109342  1
  Br  Br40  1  0.32257322  0.98310198  0.71730497  1
  Br  Br41  1  0.76962814  0.98596894  0.82503242  1
  Br  Br42  1  0.51026822  0.78146980  0.04706152  1
  Br  Br43  1  0.67314923  0.49506244  0.31371954  1
  Br  Br44  1  0.19483283  0.49162318  0.17334145  1
  Br  Br45  1  0.02710784  0.76398355  0.43891839  1
  Br  Br46  1  0.32684949  0.50494024  0.68629553  1
  Br  Br47  1  0.80516655  0.50837989  0.82667225  1
