# generated using pymatgen
data_AlPH12C2(Br3N)2
_symmetry_space_group_name_H-M   'P 1'
_cell_length_a   8.23592164
_cell_length_b   11.37331919
_cell_length_c   7.89036227
_cell_angle_alpha   86.05771779
_cell_angle_beta   90.02336658
_cell_angle_gamma   90.08013192
_symmetry_Int_Tables_number   1
_chemical_formula_structural   AlPH12C2(Br3N)2
_chemical_formula_sum   'Al2 P2 H24 C4 Br12 N4'
_cell_volume   737.33880664
_cell_formula_units_Z   2
loop_
 _symmetry_equiv_pos_site_id
 _symmetry_equiv_pos_as_xyz
  1  'x, y, z'
loop_
 _atom_site_type_symbol
 _atom_site_label
 _atom_site_symmetry_multiplicity
 _atom_site_fract_x
 _atom_site_fract_y
 _atom_site_fract_z
 _atom_site_occupancy
  C  C0  1  0.43425894  0.25441342  0.43530116  1
  C  C1  1  0.93637923  0.24598774  0.07029222  1
  C  C2  1  0.56754886  0.74683331  0.56781321  1
  C  C3  1  0.06736714  0.75246729  0.93318145  1
  N  N4  1  0.58237784  0.24249994  0.54329316  1
  N  N5  1  0.08572688  0.25947429  0.96469354  1
  N  N6  1  0.41828362  0.75833443  0.46113837  1
  N  N7  1  0.91954636  0.74229190  0.04162023  1
  H  H8  1  0.47171632  0.26355295  0.30197644  1
  H  H9  1  0.35934469  0.17547461  0.45886394  1
  H  H10  1  0.36722864  0.33232292  0.46895041  1
  H  H11  1  0.65031218  0.17015873  0.51033712  1
  H  H12  1  0.65567003  0.31633099  0.52467455  1
  H  H13  1  0.55498835  0.23102344  0.67210994  1
  H  H14  1  0.97203460  0.23555883  0.20421007  1
  H  H15  1  0.87122356  0.16751763  0.03505192  1
  H  H16  1  0.86081313  0.32441684  0.04584567  1
  H  H17  1  0.15912356  0.18608310  0.98625395  1
  H  H18  1  0.15197242  0.33250944  0.99662101  1
  H  H19  1  0.05914242  0.27036402  0.83564488  1
  H  H20  1  0.53114250  0.73772007  0.70144540  1
  H  H21  1  0.63299775  0.66807006  0.53485353  1
  H  H22  1  0.64278047  0.82536368  0.54222459  1
  H  H23  1  0.35173082  0.83142207  0.49042255  1
  H  H24  1  0.34364856  0.68542853  0.48401637  1
  H  H25  1  0.44566131  0.76763104  0.33194349  1
  H  H26  1  0.02898716  0.76185844  0.80032034  1
  H  H27  1  0.13397024  0.83080531  0.96555135  1
  H  H28  1  0.14184384  0.67358624  0.95730430  1
  H  H29  1  0.84472848  0.81476825  0.01694913  1
  H  H30  1  0.85265892  0.66817141  0.01394936  1
  H  H31  1  0.94723961  0.73631456  0.17053209  1
  Al  Al32  1  0.40858935  0.99680845  0.97790304  1
  Al  Al33  1  0.97665693  0.49486649  0.40124780  1
  P  P34  1  0.95245526  0.99703366  0.52083976  1
  P  P35  1  0.51586591  0.50070730  0.94974122  1
  Br  Br36  1  0.51518570  0.18734826  0.97595908  1
  Br  Br37  1  0.20018737  0.00347040  0.18173239  1
  Br  Br38  1  0.72680269  0.01502441  0.33962291  1
  Br  Br39  1  0.00148250  0.31071014  0.54833826  1
  Br  Br40  1  0.30393819  0.98924215  0.70265329  1
  Br  Br41  1  0.82533454  0.00179108  0.78296101  1
  Br  Br42  1  0.52233768  0.81090762  0.04134630  1
  Br  Br43  1  0.70868124  0.49336228  0.30177826  1
  Br  Br44  1  0.17884100  0.48894743  0.19160235  1
  Br  Br45  1  0.00711408  0.68807751  0.48157412  1
  Br  Br46  1  0.34361158  0.49777359  0.71470931  1
  Br  Br47  1  0.77049126  0.51525202  0.82090176  1
