# generated using pymatgen
data_SiH12PbC2(Br3N)2
_symmetry_space_group_name_H-M   'P 1'
_cell_length_a   8.14150291
_cell_length_b   11.41359479
_cell_length_c   7.97355593
_cell_angle_alpha   88.61515783
_cell_angle_beta   89.72431894
_cell_angle_gamma   90.26450550
_symmetry_Int_Tables_number   1
_chemical_formula_structural   SiH12PbC2(Br3N)2
_chemical_formula_sum   'Si2 H24 Pb2 C4 Br12 N4'
_cell_volume   740.69995099
_cell_formula_units_Z   2
loop_
 _symmetry_equiv_pos_site_id
 _symmetry_equiv_pos_as_xyz
  1  'x, y, z'
loop_
 _atom_site_type_symbol
 _atom_site_label
 _atom_site_symmetry_multiplicity
 _atom_site_fract_x
 _atom_site_fract_y
 _atom_site_fract_z
 _atom_site_occupancy
  C  C0  1  0.42572568  0.24783660  0.42378973  1
  C  C1  1  0.92448544  0.24853780  0.07872481  1
  C  C2  1  0.57147409  0.74659014  0.57342300  1
  C  C3  1  0.06923034  0.74993744  0.92617329  1
  N  N4  1  0.56532612  0.24815504  0.54269204  1
  N  N5  1  0.06218725  0.25131114  0.95606632  1
  N  N6  1  0.43978653  0.74824449  0.44518117  1
  N  N7  1  0.93522888  0.75028596  0.05309280  1
  H  H8  1  0.47571094  0.24493703  0.29643585  1
  H  H9  1  0.35090587  0.16972818  0.44984513  1
  H  H10  1  0.35356386  0.32736143  0.43933171  1
  H  H11  1  0.63639698  0.17397884  0.52581054  1
  H  H12  1  0.63948226  0.32094270  0.51931226  1
  H  H13  1  0.52743000  0.24844165  0.66806971  1
  H  H14  1  0.97645542  0.24695449  0.20497501  1
  H  H15  1  0.84986424  0.17027679  0.05906664  1
  H  H16  1  0.85151643  0.32795620  0.06066747  1
  H  H17  1  0.13569532  0.17803789  0.97290339  1
  H  H18  1  0.13501679  0.32467219  0.97476345  1
  H  H19  1  0.02209213  0.25400312  0.83194215  1
  H  H20  1  0.51419040  0.74212422  0.69777138  1
  H  H21  1  0.64876511  0.67002011  0.55377144  1
  H  H22  1  0.64338653  0.82738467  0.55955176  1
  H  H23  1  0.36370856  0.81954431  0.45894706  1
  H  H24  1  0.36620646  0.67418500  0.45772258  1
  H  H25  1  0.48550345  0.75196670  0.32222201  1
  H  H26  1  0.01413820  0.74995464  0.80140356  1
  H  H27  1  0.14456403  0.82844675  0.94083179  1
  H  H28  1  0.14240656  0.67088080  0.94629850  1
  H  H29  1  0.85921336  0.82184303  0.03261092  1
  H  H30  1  0.86306619  0.67593859  0.04542309  1
  H  H31  1  0.97898833  0.75291585  0.17618018  1
  Si  Si32  1  0.47849595  0.00772974  0.98702337  1
  Si  Si33  1  0.00403575  0.49718653  0.53269635  1
  Pb  Pb34  1  0.99167612  0.00187083  0.50596309  1
  Pb  Pb35  1  0.49175868  0.50390963  0.01381887  1
  Br  Br36  1  0.48727580  0.23853337  0.95355211  1
  Br  Br37  1  0.22379529  0.00994480  0.16699911  1
  Br  Br38  1  0.69580508  0.01341765  0.31916364  1
  Br  Br39  1  0.99024529  0.27188730  0.54386790  1
  Br  Br40  1  0.33200975  0.98986041  0.71647283  1
  Br  Br41  1  0.81292002  0.99352688  0.81219610  1
  Br  Br42  1  0.51379357  0.75994877  0.03605826  1
  Br  Br43  1  0.68893891  0.49285952  0.30807308  1
  Br  Br44  1  0.18868954  0.48696393  0.18568937  1
  Br  Br45  1  0.02075995  0.75234639  0.45993845  1
  Br  Br46  1  0.27704657  0.50663151  0.67357023  1
  Br  Br47  1  0.83106572  0.51006720  0.79021310  1
