# generated using pymatgen
data_SiHgH12C2(Br3N)2
_symmetry_space_group_name_H-M   'P 1'
_cell_length_a   8.17103198
_cell_length_b   11.30089667
_cell_length_c   7.83034069
_cell_angle_alpha   84.01787645
_cell_angle_beta   89.99617632
_cell_angle_gamma   90.04685879
_symmetry_Int_Tables_number   1
_chemical_formula_structural   SiHgH12C2(Br3N)2
_chemical_formula_sum   'Si2 Hg2 H24 C4 Br12 N4'
_cell_volume   719.11590100
_cell_formula_units_Z   2
loop_
 _symmetry_equiv_pos_site_id
 _symmetry_equiv_pos_as_xyz
  1  'x, y, z'
loop_
 _atom_site_type_symbol
 _atom_site_label
 _atom_site_symmetry_multiplicity
 _atom_site_fract_x
 _atom_site_fract_y
 _atom_site_fract_z
 _atom_site_occupancy
  C  C0  1  0.41165721  0.24806087  0.41835325  1
  C  C1  1  0.91242264  0.25193552  0.08199767  1
  C  C2  1  0.58834197  0.75194380  0.58166408  1
  C  C3  1  0.08758049  0.74806703  0.91800947  1
  N  N4  1  0.56065874  0.24401715  0.52756395  1
  N  N5  1  0.06106459  0.25590036  0.97223046  1
  N  N6  1  0.43933962  0.75598853  0.47245461  1
  N  N7  1  0.93893755  0.74409921  0.02777524  1
  H  H8  1  0.44914327  0.25394727  0.28363137  1
  H  H9  1  0.34073915  0.16677129  0.45127652  1
  H  H10  1  0.33994659  0.32604157  0.44275712  1
  H  H11  1  0.63112729  0.17049616  0.50949152  1
  H  H12  1  0.63234254  0.31946860  0.49694628  1
  H  H13  1  0.53151311  0.23894345  0.65821415  1
  H  H14  1  0.95033503  0.24614461  0.21656195  1
  H  H15  1  0.84042401  0.17390662  0.05799142  1
  H  H16  1  0.84159946  0.33319992  0.04923015  1
  H  H17  1  0.13264205  0.18048034  0.00269613  1
  H  H18  1  0.13180545  0.32945690  0.98990073  1
  H  H19  1  0.03150975  0.26089965  0.84169449  1
  H  H20  1  0.55085683  0.74606028  0.71638619  1
  H  H21  1  0.66005024  0.67396128  0.55726271  1
  H  H22  1  0.65926252  0.83323196  0.54873774  1
  H  H23  1  0.36887333  0.82950996  0.49052588  1
  H  H24  1  0.36765478  0.68053744  0.50307399  1
  H  H25  1  0.46848483  0.76106030  0.34180428  1
  H  H26  1  0.04966952  0.75385901  0.78344467  1
  H  H27  1  0.15957700  0.82609648  0.94201833  1
  H  H28  1  0.15840547  0.66680333  0.95077576  1
  H  H29  1  0.86735783  0.81951796  0.99730972  1
  H  H30  1  0.86819959  0.67054124  0.01010316  1
  H  H31  1  0.96849103  0.73909986  0.15831135  1
  Si  Si32  1  0.50000084  0.00000106  0.00000934  1
  Si  Si33  1  0.00000033  0.50000280  0.50000314  1
  Hg  Hg34  1  0.00000150  0.00000261  0.50000909  1
  Hg  Hg35  1  0.50000167  0.50000081  0.00000476  1
  Br  Br36  1  0.48560222  0.21707996  0.94950898  1
  Br  Br37  1  0.24101799  0.99827940  0.15816585  1
  Br  Br38  1  0.64884644  0.01262355  0.26717659  1
  Br  Br39  1  0.98512268  0.28292437  0.55053940  1
  Br  Br40  1  0.35115509  0.98738030  0.73284105  1
  Br  Br41  1  0.75898320  0.00172246  0.84185127  1
  Br  Br42  1  0.51439956  0.78292255  0.05050963  1
  Br  Br43  1  0.74114407  0.50167084  0.34160237  1
  Br  Br44  1  0.14907119  0.48746916  0.23297121  1
  Br  Br45  1  0.01487715  0.71708088  0.44946708  1
  Br  Br46  1  0.25885629  0.49833470  0.65840597  1
  Br  Br47  1  0.85093002  0.51253491  0.76703650  1
