# generated using pymatgen
data_BeBH12C2(I3N)2
_symmetry_space_group_name_H-M   'P 1'
_cell_length_a   7.05863083
_cell_length_b   12.55863226
_cell_length_c   9.64715703
_cell_angle_alpha   88.27450302
_cell_angle_beta   84.12760609
_cell_angle_gamma   87.73080372
_symmetry_Int_Tables_number   1
_chemical_formula_structural   BeBH12C2(I3N)2
_chemical_formula_sum   'Be2 B2 H24 C4 I12 N4'
_cell_volume   849.74197146
_cell_formula_units_Z   2
loop_
 _symmetry_equiv_pos_site_id
 _symmetry_equiv_pos_as_xyz
  1  'x, y, z'
loop_
 _atom_site_type_symbol
 _atom_site_label
 _atom_site_symmetry_multiplicity
 _atom_site_fract_x
 _atom_site_fract_y
 _atom_site_fract_z
 _atom_site_occupancy
  C  C0  1  0.39648260  0.22808535  0.34701044  1
  C  C1  1  0.87186592  0.24018975  0.11429066  1
  C  C2  1  0.62434038  0.76533713  0.66024126  1
  C  C3  1  0.13344724  0.75446422  0.90900014  1
  N  N4  1  0.43649233  0.26872118  0.48359322  1
  N  N5  1  0.96650933  0.25480900  0.97039293  1
  N  N6  1  0.52402590  0.75995366  0.53578466  1
  N  N7  1  0.07545833  0.75889145  0.06161557  1
  H  H8  1  0.53048486  0.21822470  0.28034378  1
  H  H9  1  0.32617871  0.15199087  0.36304132  1
  H  H10  1  0.30367175  0.28718416  0.29860076  1
  H  H11  1  0.52816865  0.21942712  0.53506490  1
  H  H12  1  0.49921192  0.34335136  0.46737902  1
  H  H13  1  0.30986309  0.28028678  0.54792767  1
  H  H14  1  0.98091752  0.23073468  0.18719979  1
  H  H15  1  0.78768415  0.16848785  0.11716751  1
  H  H16  1  0.78128040  0.31137256  0.13941800  1
  H  H17  1  0.06164356  0.19189967  0.94436848  1
  H  H18  1  0.04179507  0.32487896  0.96319805  1
  H  H19  1  0.86555413  0.26069291  0.89897013  1
  H  H20  1  0.53501544  0.73385817  0.75117389  1
  H  H21  1  0.76291283  0.72037803  0.65623802  1
  H  H22  1  0.65004693  0.84894265  0.68042927  1
  H  H23  1  0.19543198  0.87454462  0.39485247  1
  H  H24  1  0.49373855  0.68265118  0.51854327  1
  H  H25  1  0.60975392  0.78420735  0.44945417  1
  H  H26  1  0.04260094  0.69960928  0.86255305  1
  H  H27  1  0.11675413  0.83459936  0.86282265  1
  H  H28  1  0.28226476  0.72571624  0.89294844  1
  H  H29  1  0.92739683  0.76895745  0.08314165  1
  H  H30  1  0.11605961  0.68911155  0.11306438  1
  H  H31  1  0.13796850  0.82218038  0.10436576  1
  Be  Be32  1  0.54393021  0.93457863  0.03897433  1
  Be  Be33  1  0.88712277  0.48226851  0.43903733  1
  B  B34  1  0.11645256  0.94366573  0.46274059  1
  B  B35  1  0.44387398  0.44361233  0.87962060  1
  I  I36  1  0.48248518  0.26312583  0.86095648  1
  I  I37  1  0.25458894  0.02336469  0.09818972  1
  I  I38  1  0.83442760  0.99462441  0.42648744  1
  I  I39  1  0.94130040  0.31558958  0.54684688  1
  I  I40  1  0.26258266  0.00645040  0.62276312  1
  I  I41  1  0.77583267  0.00110015  0.88200643  1
  I  I42  1  0.57486158  0.76963463  0.14234419  1
  I  I43  1  0.62704652  0.49014738  0.31559906  1
  I  I44  1  0.23676138  0.47289896  0.07538298  1
  I  I45  1  0.06328091  0.63262490  0.42379293  1
  I  I46  1  0.30919954  0.51328804  0.69889639  1
  I  I47  1  0.73125655  0.50936450  0.89246279  1
