# generated using pymatgen
data_SiH12AuC2(Br3N)2
_symmetry_space_group_name_H-M   'P 1'
_cell_length_a   7.87198573
_cell_length_b   10.54742601
_cell_length_c   8.35182969
_cell_angle_alpha   86.30158925
_cell_angle_beta   88.91535343
_cell_angle_gamma   89.65942260
_symmetry_Int_Tables_number   1
_chemical_formula_structural   SiH12AuC2(Br3N)2
_chemical_formula_sum   'Si2 H24 Au2 C4 Br12 N4'
_cell_volume   691.86971999
_cell_formula_units_Z   2
loop_
 _symmetry_equiv_pos_site_id
 _symmetry_equiv_pos_as_xyz
  1  'x, y, z'
loop_
 _atom_site_type_symbol
 _atom_site_label
 _atom_site_symmetry_multiplicity
 _atom_site_fract_x
 _atom_site_fract_y
 _atom_site_fract_z
 _atom_site_occupancy
  C  C0  1  0.47037023  0.24220437  0.41873453  1
  C  C1  1  0.96512781  0.27623199  0.06571411  1
  C  C2  1  0.52021278  0.74586813  0.58272414  1
  C  C3  1  0.03718437  0.72739288  0.93102402  1
  N  N4  1  0.56254853  0.25879463  0.56930920  1
  N  N5  1  0.06510030  0.25325849  0.91796199  1
  N  N6  1  0.44817785  0.74720547  0.41951417  1
  N  N7  1  0.95643656  0.74782262  0.08920256  1
  H  H8  1  0.56340110  0.22565455  0.32344694  1
  H  H9  1  0.38562452  0.16046172  0.43716369  1
  H  H10  1  0.39643889  0.32815714  0.38819090  1
  H  H11  1  0.64096706  0.18042545  0.59702986  1
  H  H12  1  0.64051917  0.33800041  0.55917130  1
  H  H13  1  0.48177672  0.26974834  0.66681542  1
  H  H14  1  0.04321119  0.25175155  0.17008784  1
  H  H15  1  0.85148755  0.21683215  0.06951526  1
  H  H16  1  0.92881601  0.37654941  0.06289613  1
  H  H17  1  0.08676931  0.15725679  0.90676763  1
  H  H18  1  0.18256050  0.29749259  0.91623803  1
  H  H19  1  0.00186505  0.28651673  0.81557738  1
  H  H20  1  0.42273360  0.71383301  0.67055468  1
  H  H21  1  0.62952703  0.68129995  0.58841592  1
  H  H22  1  0.56071297  0.84241514  0.60444100  1
  H  H23  1  0.33591096  0.79875527  0.41253457  1
  H  H24  1  0.41800675  0.65660854  0.38755743  1
  H  H25  1  0.53216588  0.78740656  0.33352567  1
  H  H26  1  0.93754105  0.72118222  0.84267568  1
  H  H27  1  0.11949020  0.80818325  0.89657221  1
  H  H28  1  0.11145792  0.63925686  0.94021138  1
  H  H29  1  0.88277050  0.82981000  0.08577896  1
  H  H30  1  0.87841217  0.67286371  0.13020013  1
  H  H31  1  0.04483867  0.75701351  0.17772857  1
  Si  Si32  1  0.44392749  0.99607762  0.99110009  1
  Si  Si33  1  0.01170127  0.49819994  0.49819319  1
  Au  Au34  1  0.80293459  0.99482389  0.54495791  1
  Au  Au35  1  0.49368321  0.50710817  0.99547957  1
  Br  Br36  1  0.49603223  0.27379321  0.98349576  1
  Br  Br37  1  0.21177250  0.99048590  0.18128672  1
  Br  Br38  1  0.72885312  0.98331163  0.26500935  1
  Br  Br39  1  0.00790937  0.26972003  0.49627267  1
  Br  Br40  1  0.29832336  0.01179412  0.74347204  1
  Br  Br41  1  0.82357135  0.01355813  0.83162828  1
  Br  Br42  1  0.52770963  0.73919268  0.00613617  1
  Br  Br43  1  0.75947469  0.51194355  0.32240339  1
  Br  Br44  1  0.20009240  0.51435906  0.26060464  1
  Br  Br45  1  0.01564602  0.72979633  0.50095586  1
  Br  Br46  1  0.25762565  0.48436639  0.67150861  1
  Br  Br47  1  0.81860362  0.48529423  0.73051107  1
