# generated using pymatgen
data_SiH12PtC2(Br3N)2
_symmetry_space_group_name_H-M   'P 1'
_cell_length_a   8.50596307
_cell_length_b   10.12567141
_cell_length_c   8.36365871
_cell_angle_alpha   90.17678702
_cell_angle_beta   90.28031189
_cell_angle_gamma   90.38639401
_symmetry_Int_Tables_number   1
_chemical_formula_structural   SiH12PtC2(Br3N)2
_chemical_formula_sum   'Si2 H24 Pt2 C4 Br12 N4'
_cell_volume   720.32160365
_cell_formula_units_Z   2
loop_
 _symmetry_equiv_pos_site_id
 _symmetry_equiv_pos_as_xyz
  1  'x, y, z'
loop_
 _atom_site_type_symbol
 _atom_site_label
 _atom_site_symmetry_multiplicity
 _atom_site_fract_x
 _atom_site_fract_y
 _atom_site_fract_z
 _atom_site_occupancy
  C  C0  1  0.45771093  0.29471903  0.36338695  1
  C  C1  1  0.95836397  0.20802801  0.12499530  1
  C  C2  1  0.55928388  0.69539552  0.60718148  1
  C  C3  1  0.04006273  0.80986640  0.88597790  1
  N  N4  1  0.55657290  0.25984546  0.50347810  1
  N  N5  1  0.07148995  0.22501070  0.99210280  1
  N  N6  1  0.43937351  0.76395699  0.50959156  1
  N  N7  1  0.93750973  0.75068123  0.00931987  1
  H  H8  1  0.51598686  0.26089096  0.25430637  1
  H  H9  1  0.34311994  0.24590526  0.37535830  1
  H  H10  1  0.44219124  0.40174866  0.35906869  1
  H  H11  1  0.58675596  0.16030490  0.50102241  1
  H  H12  1  0.66300835  0.31025215  0.50322745  1
  H  H13  1  0.50256480  0.27941727  0.61357105  1
  H  H14  1  0.02126758  0.21767254  0.23911045  1
  H  H15  1  0.90200758  0.11079705  0.11687342  1
  H  H16  1  0.86935693  0.28516159  0.11488986  1
  H  H17  1  0.16153804  0.15674088  0.99827854  1
  H  H18  1  0.12572099  0.31783527  0.99782356  1
  H  H19  1  0.01788985  0.21574681  0.87923371  1
  H  H20  1  0.50277092  0.65266226  0.71284476  1
  H  H21  1  0.61085897  0.61653645  0.53490739  1
  H  H22  1  0.65041862  0.76683164  0.64224035  1
  H  H23  1  0.38739754  0.84408635  0.56884151  1
  H  H24  1  0.34869198  0.69990555  0.47828401  1
  H  H25  1  0.48782309  0.80106499  0.40565268  1
  H  H26  1  0.96860704  0.83473296  0.78106832  1
  H  H27  1  0.09456815  0.89990232  0.93396333  1
  H  H28  1  0.13145001  0.73865232  0.85469971  1
  H  H29  1  0.84566887  0.81334431  0.03680305  1
  H  H30  1  0.88637229  0.66105281  0.97044410  1
  H  H31  1  0.99874846  0.73215461  0.11420283  1
  Si  Si32  1  0.44218339  0.86611799  0.94579772  1
  Si  Si33  1  0.95392628  0.61381356  0.56109796  1
  Pt  Pt34  1  0.99312025  0.00103430  0.50875350  1
  Pt  Pt35  1  0.49868399  0.50034345  0.99587525  1
  Br  Br36  1  0.43115941  0.29062901  0.87292307  1
  Br  Br37  1  0.33811724  0.00011468  0.15325779  1
  Br  Br38  1  0.73283242  0.97972366  0.37974983  1
  Br  Br39  1  0.91642605  0.20816063  0.63151140  1
  Br  Br40  1  0.25480992  0.03121745  0.63390744  1
  Br  Br41  1  0.67363109  0.98402149  0.88405619  1
  Br  Br42  1  0.57273450  0.70620738  0.13615061  1
  Br  Br43  1  0.84283321  0.49193731  0.34691809  1
  Br  Br44  1  0.23060503  0.51934159  0.10469408  1
  Br  Br45  1  0.07492529  0.79303158  0.38046045  1
  Br  Br46  1  0.19442712  0.50535524  0.60127353  1
  Br  Br47  1  0.76445689  0.47812569  0.88111989  1
