# generated using pymatgen
data_BaSiH12C2(Br3N)2
_symmetry_space_group_name_H-M   'P 1'
_cell_length_a   8.25109126
_cell_length_b   11.70806627
_cell_length_c   7.89392517
_cell_angle_alpha   87.83680851
_cell_angle_beta   90.01240924
_cell_angle_gamma   89.98736743
_symmetry_Int_Tables_number   1
_chemical_formula_structural   BaSiH12C2(Br3N)2
_chemical_formula_sum   'Ba2 Si2 H24 C4 Br12 N4'
_cell_volume   762.04381963
_cell_formula_units_Z   2
loop_
 _symmetry_equiv_pos_site_id
 _symmetry_equiv_pos_as_xyz
  1  'x, y, z'
loop_
 _atom_site_type_symbol
 _atom_site_label
 _atom_site_symmetry_multiplicity
 _atom_site_fract_x
 _atom_site_fract_y
 _atom_site_fract_z
 _atom_site_occupancy
  C  C0  1  0.41596004  0.25101516  0.42244588  1
  C  C1  1  0.91545361  0.24904136  0.07802155  1
  C  C2  1  0.58391909  0.74901967  0.57715690  1
  C  C3  1  0.08348782  0.75114685  0.92218180  1
  N  N4  1  0.56231339  0.24773455  0.53157585  1
  N  N5  1  0.06200991  0.25221707  0.96927270  1
  N  N6  1  0.43847509  0.75193364  0.46670418  1
  N  N7  1  0.93816599  0.74800510  0.03274128  1
  H  H8  1  0.45474237  0.25103911  0.28984582  1
  H  H9  1  0.34494999  0.17393849  0.45123314  1
  H  H10  1  0.34578956  0.32771232  0.44766337  1
  H  H11  1  0.63002632  0.17566790  0.50600875  1
  H  H12  1  0.63434218  0.31931225  0.50585304  1
  H  H13  1  0.53316822  0.24433219  0.66065846  1
  H  H14  1  0.95404196  0.24823998  0.21076318  1
  H  H15  1  0.84470920  0.17280769  0.05189087  1
  H  H16  1  0.84514630  0.32657400  0.04991765  1
  H  H17  1  0.13368068  0.18038106  0.99480024  1
  H  H18  1  0.12998304  0.32401271  0.99538353  1
  H  H19  1  0.03310327  0.25595606  0.84009525  1
  H  H20  1  0.54398530  0.74783747  0.70942366  1
  H  H21  1  0.65541539  0.67301152  0.55148565  1
  H  H22  1  0.65398528  0.82677896  0.55013163  1
  H  H23  1  0.36995310  0.82368505  0.49164323  1
  H  H24  1  0.36670469  0.68013391  0.49167103  1
  H  H25  1  0.46856914  0.75554309  0.33784774  1
  H  H26  1  0.04341881  0.75160210  0.78996681  1
  H  H27  1  0.15428205  0.82757788  0.94712601  1
  H  H28  1  0.15435575  0.67379978  0.94981873  1
  H  H29  1  0.86601065  0.81964032  0.00767198  1
  H  H30  1  0.87002277  0.67607539  0.00799221  1
  H  H31  1  0.96839144  0.74461384  0.16158262  1
  Si  Si32  1  0.49984700  0.99991484  0.99918569  1
  Si  Si33  1  0.00016673  0.50002955  0.50075571  1
  Ba  Ba34  1  0.00001978  0.00013134  0.50021670  1
  Ba  Ba35  1  0.50010245  0.49978827  0.99984421  1
  Br  Br36  1  0.48265133  0.23313089  0.94324148  1
  Br  Br37  1  0.20668630  0.01062641  0.16176342  1
  Br  Br38  1  0.66368140  0.01915692  0.30365567  1
  Br  Br39  1  0.98335448  0.26686309  0.55715880  1
  Br  Br40  1  0.33701242  0.98046245  0.69677967  1
  Br  Br41  1  0.79274069  0.98915419  0.83842421  1
  Br  Br42  1  0.51720536  0.76663250  0.05524409  1
  Br  Br43  1  0.70685641  0.48912597  0.33827350  1
  Br  Br44  1  0.16375418  0.48079648  0.19640127  1
  Br  Br45  1  0.01736918  0.73335195  0.44416622  1
  Br  Br46  1  0.29304144  0.51109716  0.66140017  1
  Br  Br47  1  0.83697215  0.51942982  0.80321105  1
