# generated using pymatgen
data_SiSnH12C2(Br3N)2
_symmetry_space_group_name_H-M   'P 1'
_cell_length_a   8.31105077
_cell_length_b   11.47888189
_cell_length_c   7.87030224
_cell_angle_alpha   89.29157912
_cell_angle_beta   89.89249885
_cell_angle_gamma   89.86452504
_symmetry_Int_Tables_number   1
_chemical_formula_structural   SiSnH12C2(Br3N)2
_chemical_formula_sum   'Si2 Sn2 H24 C4 Br12 N4'
_cell_volume   750.77842122
_cell_formula_units_Z   2
loop_
 _symmetry_equiv_pos_site_id
 _symmetry_equiv_pos_as_xyz
  1  'x, y, z'
loop_
 _atom_site_type_symbol
 _atom_site_label
 _atom_site_symmetry_multiplicity
 _atom_site_fract_x
 _atom_site_fract_y
 _atom_site_fract_z
 _atom_site_occupancy
  C  C0  1  0.42545830  0.25117953  0.43498752  1
  C  C1  1  0.92564482  0.24815559  0.06579902  1
  C  C2  1  0.57528919  0.75161308  0.56632292  1
  C  C3  1  0.07263160  0.74772793  0.93165172  1
  N  N4  1  0.57781594  0.24787981  0.53350285  1
  N  N5  1  0.07733393  0.25115941  0.96543745  1
  N  N6  1  0.42201327  0.75264861  0.46926978  1
  N  N7  1  0.91918369  0.74730148  0.02861205  1
  H  H8  1  0.45502858  0.25235106  0.29933466  1
  H  H9  1  0.35608494  0.17293779  0.46608813  1
  H  H10  1  0.35738183  0.32912458  0.46906853  1
  H  H11  1  0.64418076  0.17434697  0.50086825  1
  H  H12  1  0.64842915  0.32005275  0.50595397  1
  H  H13  1  0.55629183  0.24593408  0.66445578  1
  H  H14  1  0.95610845  0.24644687  0.20098601  1
  H  H15  1  0.85795181  0.17020720  0.03231489  1
  H  H16  1  0.85610432  0.32660005  0.03527930  1
  H  H17  1  0.14912735  0.17960709  0.99460322  1
  H  H18  1  0.14312558  0.32485393  0.99356057  1
  H  H19  1  0.05483559  0.25145037  0.83457124  1
  H  H20  1  0.54623353  0.75113234  0.70189741  1
  H  H21  1  0.64276334  0.67303161  0.53422820  1
  H  H22  1  0.64345783  0.82991417  0.53283920  1
  H  H23  1  0.35411033  0.82503457  0.50066496  1
  H  H24  1  0.35458329  0.67924322  0.50082120  1
  H  H25  1  0.44175138  0.75486199  0.33830790  1
  H  H26  1  0.04445067  0.74816927  0.79592704  1
  H  H27  1  0.14052639  0.82573574  0.96411305  1
  H  H28  1  0.14084528  0.66919872  0.96481096  1
  H  H29  1  0.85192262  0.82096274  0.99759000  1
  H  H30  1  0.85181229  0.67445670  0.99642659  1
  H  H31  1  0.93911277  0.74560481  0.15943147  1
  Si  Si32  1  0.47170379  0.98856933  0.99779261  1
  Si  Si33  1  0.99178441  0.51082699  0.46303404  1
  Sn  Sn34  1  0.98487546  0.00496541  0.51493500  1
  Sn  Sn35  1  0.50128754  0.49767306  0.98046974  1
  Br  Br36  1  0.49450351  0.25759912  0.95083723  1
  Br  Br37  1  0.23060446  0.00925353  0.17960787  1
  Br  Br38  1  0.71563473  0.01718291  0.31650903  1
  Br  Br39  1  0.99391966  0.24379851  0.55161772  1
  Br  Br40  1  0.32356719  0.98287148  0.72608975  1
  Br  Br41  1  0.80739325  0.98576768  0.80404709  1
  Br  Br42  1  0.49915944  0.77116915  0.04742221  1
  Br  Br43  1  0.73180674  0.49178870  0.31612151  1
  Br  Br44  1  0.17055263  0.48703582  0.21551683  1
  Br  Br45  1  0.00425975  0.73035105  0.44633188  1
  Br  Br46  1  0.31077526  0.51618940  0.69878865  1
  Br  Br47  1  0.78660523  0.51611204  0.81144960  1
