# generated using pymatgen
data_CdSiH12C2(Br3N)2
_symmetry_space_group_name_H-M   'P 1'
_cell_length_a   8.27670707
_cell_length_b   10.61321650
_cell_length_c   8.18898695
_cell_angle_alpha   90.04711446
_cell_angle_beta   90.10846922
_cell_angle_gamma   90.71943874
_symmetry_Int_Tables_number   1
_chemical_formula_structural   CdSiH12C2(Br3N)2
_chemical_formula_sum   'Cd2 Si2 H24 C4 Br12 N4'
_cell_volume   719.28270140
_cell_formula_units_Z   2
loop_
 _symmetry_equiv_pos_site_id
 _symmetry_equiv_pos_as_xyz
  1  'x, y, z'
loop_
 _atom_site_type_symbol
 _atom_site_label
 _atom_site_symmetry_multiplicity
 _atom_site_fract_x
 _atom_site_fract_y
 _atom_site_fract_z
 _atom_site_occupancy
  C  C0  1  0.44850220  0.25086475  0.42190853  1
  C  C1  1  0.94106177  0.25129321  0.07961137  1
  C  C2  1  0.55283443  0.74538385  0.56501887  1
  C  C3  1  0.03986849  0.74942058  0.93156423  1
  N  N4  1  0.58016747  0.25423080  0.54546114  1
  N  N5  1  0.06336004  0.24931621  0.94704637  1
  N  N6  1  0.44865044  0.74610286  0.41693139  1
  N  N7  1  0.92880652  0.75443360  0.07381594  1
  H  H8  1  0.50321569  0.24249143  0.30094700  1
  H  H9  1  0.37039895  0.16915952  0.44570331  1
  H  H10  1  0.37915659  0.33759680  0.43121945  1
  H  H11  1  0.64774886  0.17299249  0.53798370  1
  H  H12  1  0.65761165  0.33005872  0.52486240  1
  H  H13  1  0.53715020  0.26157988  0.66492901  1
  H  H14  1  0.00445130  0.25201243  0.19677608  1
  H  H15  1  0.86414775  0.16724246  0.06907840  1
  H  H16  1  0.86913196  0.33638634  0.06756045  1
  H  H17  1  0.13655197  0.17129980  0.95880223  1
  H  H18  1  0.13754857  0.32854154  0.95232776  1
  H  H19  1  0.01185859  0.24542717  0.83136072  1
  H  H20  1  0.47599175  0.73219409  0.67204048  1
  H  H21  1  0.63855964  0.66821144  0.55436298  1
  H  H22  1  0.61657673  0.83602138  0.57319244  1
  H  H23  1  0.36360629  0.81665001  0.42246239  1
  H  H24  1  0.38364434  0.66247227  0.40498700  1
  H  H25  1  0.51416660  0.75886713  0.30992408  1
  H  H26  1  0.96766512  0.74176714  0.82015378  1
  H  H27  1  0.11208456  0.83624210  0.92893834  1
  H  H28  1  0.11763392  0.66760575  0.94482912  1
  H  H29  1  0.85090329  0.82971921  0.06355560  1
  H  H30  1  0.85818522  0.67351540  0.08367024  1
  H  H31  1  0.99014558  0.76388467  0.18463302  1
  Si  Si32  1  0.45692135  0.99944229  0.98609671  1
  Si  Si33  1  0.01324180  0.48835415  0.54947789  1
  Cd  Cd34  1  0.92603084  0.98941143  0.52970137  1
  Cd  Cd35  1  0.47716466  0.49622077  0.07718343  1
  Br  Br36  1  0.49692883  0.26940994  0.94756521  1
  Br  Br37  1  0.22564124  0.00625753  0.16963229  1
  Br  Br38  1  0.70209004  0.00077925  0.30263333  1
  Br  Br39  1  0.02201477  0.23597231  0.52629455  1
  Br  Br40  1  0.31340051  0.99808507  0.73097010  1
  Br  Br41  1  0.79922902  0.00319639  0.81806773  1
  Br  Br42  1  0.51494166  0.74108939  0.00044413  1
  Br  Br43  1  0.71302818  0.50415308  0.29275023  1
  Br  Br44  1  0.18964112  0.50200973  0.20244220  1
  Br  Br45  1  0.04882851  0.76972918  0.47151016  1
  Br  Br46  1  0.26542705  0.50278492  0.69529595  1
  Br  Br47  1  0.82410768  0.49019784  0.77457346  1
