# generated using pymatgen
data_SrSiH12C2(Br3N)2
_symmetry_space_group_name_H-M   'P 1'
_cell_length_a   8.02960382
_cell_length_b   11.46259582
_cell_length_c   7.82346957
_cell_angle_alpha   88.72843421
_cell_angle_beta   90.00442630
_cell_angle_gamma   90.00528374
_symmetry_Int_Tables_number   1
_chemical_formula_structural   SrSiH12C2(Br3N)2
_chemical_formula_sum   'Sr2 Si2 H24 C4 Br12 N4'
_cell_volume   719.89562029
_cell_formula_units_Z   2
loop_
 _symmetry_equiv_pos_site_id
 _symmetry_equiv_pos_as_xyz
  1  'x, y, z'
loop_
 _atom_site_type_symbol
 _atom_site_label
 _atom_site_symmetry_multiplicity
 _atom_site_fract_x
 _atom_site_fract_y
 _atom_site_fract_z
 _atom_site_occupancy
  C  C0  1  0.39502755  0.25028615  0.41293600  1
  C  C1  1  0.89601254  0.24984342  0.08798606  1
  C  C2  1  0.60496963  0.74971849  0.58707703  1
  C  C3  1  0.10399259  0.75015819  0.91202529  1
  N  N4  1  0.54461909  0.24936815  0.52346212  1
  N  N5  1  0.04502006  0.25063028  0.97666900  1
  N  N6  1  0.45537740  0.75063751  0.47655198  1
  N  N7  1  0.95498604  0.74936775  0.02334362  1
  H  H8  1  0.43476435  0.25054510  0.27916232  1
  H  H9  1  0.32339695  0.17118632  0.44068232  1
  H  H10  1  0.32126033  0.32783977  0.43894464  1
  H  H11  1  0.61613558  0.17629400  0.49788551  1
  H  H12  1  0.61687980  0.32308888  0.49785148  1
  H  H13  1  0.51423384  0.24716696  0.65330797  1
  H  H14  1  0.93650191  0.24960392  0.22153115  1
  H  H15  1  0.82196996  0.17232263  0.06246593  1
  H  H16  1  0.82436938  0.32899304  0.06064867  1
  H  H17  1  0.11728458  0.17687904  0.00198851  1
  H  H18  1  0.11676228  0.32367658  0.00181312  1
  H  H19  1  0.01399590  0.25280050  0.84697112  1
  H  H20  1  0.56523370  0.74946112  0.72085101  1
  H  H21  1  0.67873470  0.67216379  0.56106916  1
  H  H22  1  0.67660215  0.82881728  0.55932930  1
  H  H23  1  0.38386170  0.82371185  0.50212973  1
  H  H24  1  0.38311658  0.67691664  0.50216251  1
  H  H25  1  0.48576224  0.75283908  0.34670613  1
  H  H26  1  0.06350198  0.75039999  0.77848055  1
  H  H27  1  0.17803445  0.82767873  0.93754826  1
  H  H28  1  0.17563643  0.67100831  0.93935836  1
  H  H29  1  0.88271905  0.82311809  0.99802600  1
  H  H30  1  0.88324630  0.67632039  0.99819861  1
  H  H31  1  0.98601091  0.74719716  0.15304142  1
  Si  Si32  1  0.50000319  0.00000197  0.00001007  1
  Si  Si33  1  0.99999704  0.50000258  0.50000137  1
  Sr  Sr34  1  0.00000177  0.00000225  0.50000878  1
  Sr  Sr35  1  0.49999861  0.50000429  1.00000079  1
  Br  Br36  1  0.47373119  0.23911038  0.94278310  1
  Br  Br37  1  0.19935327  0.00841787  0.17019167  1
  Br  Br38  1  0.67066862  0.01458310  0.30786281  1
  Br  Br39  1  0.97317716  0.26088952  0.55769770  1
  Br  Br40  1  0.32933401  0.98542224  0.69215454  1
  Br  Br41  1  0.80065427  0.99158203  0.82982659  1
  Br  Br42  1  0.52627202  0.76089893  0.05723143  1
  Br  Br43  1  0.69936902  0.49144926  0.32972248  1
  Br  Br44  1  0.17078016  0.48551267  0.19219231  1
  Br  Br45  1  0.02681826  0.73911383  0.44231507  1
  Br  Br46  1  0.30062742  0.50855606  0.67028080  1
  Br  Br47  1  0.82921779  0.51449217  0.80781225  1
