# generated using pymatgen
data_SiGeH12C2(Br3N)2
_symmetry_space_group_name_H-M   'P 1'
_cell_length_a   8.29164512
_cell_length_b   11.31981066
_cell_length_c   7.83072702
_cell_angle_alpha   89.41286920
_cell_angle_beta   89.98405922
_cell_angle_gamma   90.02832740
_symmetry_Int_Tables_number   1
_chemical_formula_structural   SiGeH12C2(Br3N)2
_chemical_formula_sum   'Si2 Ge2 H24 C4 Br12 N4'
_cell_volume   734.95217691
_cell_formula_units_Z   2
loop_
 _symmetry_equiv_pos_site_id
 _symmetry_equiv_pos_as_xyz
  1  'x, y, z'
loop_
 _atom_site_type_symbol
 _atom_site_label
 _atom_site_symmetry_multiplicity
 _atom_site_fract_x
 _atom_site_fract_y
 _atom_site_fract_z
 _atom_site_occupancy
  C  C0  1  0.43867796  0.25130360  0.44358539  1
  C  C1  1  0.93976982  0.24958668  0.05569016  1
  C  C2  1  0.56269410  0.75156309  0.55693126  1
  C  C3  1  0.05774880  0.74773035  0.93916470  1
  N  N4  1  0.59174380  0.24961919  0.54217932  1
  N  N5  1  0.09228886  0.25082019  0.95606298  1
  N  N6  1  0.40731607  0.75155043  0.46234300  1
  N  N7  1  0.90404810  0.74801974  0.03657904  1
  H  H8  1  0.46789959  0.25148502  0.30725330  1
  H  H9  1  0.36908862  0.17229874  0.47671882  1
  H  H10  1  0.37071861  0.33067536  0.47636352  1
  H  H11  1  0.65904566  0.17538454  0.51132072  1
  H  H12  1  0.66186577  0.32291227  0.51248198  1
  H  H13  1  0.57086855  0.24905016  0.67376278  1
  H  H14  1  0.96960178  0.24850795  0.19179614  1
  H  H15  1  0.87134799  0.17041630  0.02271790  1
  H  H16  1  0.87080455  0.32897942  0.02330379  1
  H  H17  1  0.16380029  0.17908612  0.98928473  1
  H  H18  1  0.15867436  0.32616905  0.98033642  1
  H  H19  1  0.07028083  0.24757187  0.82460233  1
  H  H20  1  0.53631447  0.75027083  0.69375327  1
  H  H21  1  0.63060181  0.67261028  0.52225447  1
  H  H22  1  0.62973857  0.83148945  0.52240930  1
  H  H23  1  0.33792617  0.82388674  0.49495102  1
  H  H24  1  0.34078740  0.67662986  0.49273329  1
  H  H25  1  0.42534549  0.75436186  0.33036116  1
  H  H26  1  0.02923321  0.74792988  0.80269469  1
  H  H27  1  0.12628977  0.82688008  0.97150795  1
  H  H28  1  0.12572675  0.66820783  0.97332565  1
  H  H29  1  0.83701126  0.82259246  0.00646123  1
  H  H30  1  0.83510565  0.67473558  0.00480532  1
  H  H31  1  0.92445477  0.74632123  0.16811083  1
  Si  Si32  1  0.46654949  0.98706073  0.00280292  1
  Si  Si33  1  0.99174241  0.50942827  0.45990415  1
  Ge  Ge34  1  0.97385639  0.00731740  0.52318675  1
  Ge  Ge35  1  0.50509496  0.49250549  0.96593972  1
  Br  Br36  1  0.50714134  0.26513917  0.96093152  1
  Br  Br37  1  0.23187790  0.00953045  0.18897000  1
  Br  Br38  1  0.73669057  0.01646309  0.31646036  1
  Br  Br39  1  0.00517366  0.23330804  0.54318282  1
  Br  Br40  1  0.31820071  0.98585721  0.73386126  1
  Br  Br41  1  0.80436799  0.98992510  0.79163707  1
  Br  Br42  1  0.49015513  0.76984098  0.04395304  1
  Br  Br43  1  0.73703294  0.48933387  0.30726624  1
  Br  Br44  1  0.17935339  0.48983252  0.22182512  1
  Br  Br45  1  0.99707997  0.72916948  0.45289761  1
  Br  Br46  1  0.30937000  0.51081805  0.71642580  1
  Br  Br47  1  0.76951746  0.51590226  0.80520575  1
