# generated using pymatgen
data_ZnSiH12C2(Br3N)2
_symmetry_space_group_name_H-M   'P 1'
_cell_length_a   8.37471800
_cell_length_b   10.20948594
_cell_length_c   8.21852849
_cell_angle_alpha   90.72780930
_cell_angle_beta   89.98359957
_cell_angle_gamma   90.07167691
_symmetry_Int_Tables_number   1
_chemical_formula_structural   ZnSiH12C2(Br3N)2
_chemical_formula_sum   'Zn2 Si2 H24 C4 Br12 N4'
_cell_volume   702.63978510
_cell_formula_units_Z   2
loop_
 _symmetry_equiv_pos_site_id
 _symmetry_equiv_pos_as_xyz
  1  'x, y, z'
loop_
 _atom_site_type_symbol
 _atom_site_label
 _atom_site_symmetry_multiplicity
 _atom_site_fract_x
 _atom_site_fract_y
 _atom_site_fract_z
 _atom_site_occupancy
  C  C0  1  0.44401032  0.25965035  0.44838154  1
  C  C1  1  0.94433193  0.24047761  0.05284152  1
  C  C2  1  0.56014959  0.75227856  0.56593158  1
  C  C3  1  0.05970384  0.74776427  0.93352243  1
  N  N4  1  0.58014183  0.24699623  0.56344789  1
  N  N5  1  0.07873832  0.25057009  0.93515950  1
  N  N6  1  0.41258491  0.74423667  0.46609756  1
  N  N7  1  0.91298678  0.75703491  0.03457625  1
  H  H8  1  0.49094246  0.26495602  0.32448491  1
  H  H9  1  0.36651661  0.17420623  0.46094869  1
  H  H10  1  0.37814092  0.34872943  0.47954892  1
  H  H11  1  0.64570123  0.16314282  0.53898276  1
  H  H12  1  0.65832056  0.32521041  0.55338575  1
  H  H13  1  0.54298556  0.24326708  0.68412185  1
  H  H14  1  0.99314463  0.23685150  0.17604492  1
  H  H15  1  0.87716244  0.15124420  0.02504924  1
  H  H16  1  0.86743028  0.32603077  0.03945462  1
  H  H17  1  0.15649295  0.17232053  0.94636222  1
  H  H18  1  0.14535755  0.33463623  0.95558865  1
  H  H19  1  0.03978377  0.25203490  0.81495692  1
  H  H20  1  0.52592914  0.76512959  0.69374106  1
  H  H21  1  0.62820163  0.66183246  0.54907609  1
  H  H22  1  0.63116245  0.83595296  0.52678375  1
  H  H23  1  0.34443660  0.82825820  0.48128032  1
  H  H24  1  0.34289369  0.66616045  0.50439657  1
  H  H25  1  0.43716768  0.73109710  0.34259132  1
  H  H26  1  0.02434887  0.73658899  0.80584096  1
  H  H27  1  0.13007878  0.83705214  0.95111105  1
  H  H28  1  0.12886846  0.66270345  0.97092215  1
  H  H29  1  0.84394554  0.83541191  0.99644733  1
  H  H30  1  0.84366995  0.67343774  0.02058108  1
  H  H31  1  0.93861871  0.77042026  0.15780921  1
  Si  Si32  1  0.49288787  0.00671955  0.04505456  1
  Si  Si33  1  0.99318065  0.49484235  0.45470498  1
  Zn  Zn34  1  0.02063618  0.99127640  0.60165276  1
  Zn  Zn35  1  0.52050041  0.50949404  0.89816390  1
  Br  Br36  1  0.49512441  0.27437254  0.98778709  1
  Br  Br37  1  0.24896065  0.01403704  0.19170056  1
  Br  Br38  1  0.67555274  0.01046631  0.26843976  1
  Br  Br39  1  0.99578468  0.22563780  0.51209906  1
  Br  Br40  1  0.28817761  0.99638781  0.70716095  1
  Br  Br41  1  0.79194467  0.99076911  0.77959258  1
  Br  Br42  1  0.49976868  0.70881623  0.06374162  1
  Br  Br43  1  0.74939535  0.48621604  0.30820723  1
  Br  Br44  1  0.17592313  0.49038746  0.23181247  1
  Br  Br45  1  0.99908017  0.79165826  0.43660789  1
  Br  Br46  1  0.29126182  0.50974114  0.72127737  1
  Br  Br47  1  0.78789671  0.50357214  0.79282519  1
