# generated using pymatgen
data_CuSiH12C2(Br3N)2
_symmetry_space_group_name_H-M   'P 1'
_cell_length_a   8.29897888
_cell_length_b   10.23071235
_cell_length_c   7.92974201
_cell_angle_alpha   89.64473063
_cell_angle_beta   90.07110707
_cell_angle_gamma   90.10773053
_symmetry_Int_Tables_number   1
_chemical_formula_structural   CuSiH12C2(Br3N)2
_chemical_formula_sum   'Si2 Cu2 H24 C4 Br12 N4'
_cell_volume   673.25586739
_cell_formula_units_Z   2
loop_
 _symmetry_equiv_pos_site_id
 _symmetry_equiv_pos_as_xyz
  1  'x, y, z'
loop_
 _atom_site_type_symbol
 _atom_site_label
 _atom_site_symmetry_multiplicity
 _atom_site_fract_x
 _atom_site_fract_y
 _atom_site_fract_z
 _atom_site_occupancy
  C  C0  1  0.44666849  0.25594039  0.46199190  1
  C  C1  1  0.95836746  0.23579546  0.05482896  1
  C  C2  1  0.55332312  0.75237222  0.54796217  1
  C  C3  1  0.04695108  0.76163386  0.95236933  1
  N  N4  1  0.59391509  0.24877743  0.56798702  1
  N  N5  1  0.09790353  0.25149486  0.94011672  1
  N  N6  1  0.40062678  0.74391539  0.45103490  1
  N  N7  1  0.90257211  0.74831682  0.06091704  1
  H  H8  1  0.48259768  0.26480705  0.32978276  1
  H  H9  1  0.37686414  0.16651706  0.48111673  1
  H  H10  1  0.37621779  0.34080515  0.50062774  1
  H  H11  1  0.66478977  0.16985566  0.53531132  1
  H  H12  1  0.66428527  0.33169812  0.55281513  1
  H  H13  1  0.56661909  0.24041704  0.69610334  1
  H  H14  1  0.00192334  0.23634073  0.18488105  1
  H  H15  1  0.89909408  0.14298068  0.02732665  1
  H  H16  1  0.87465455  0.31651328  0.03330102  1
  H  H17  1  0.18504788  0.18190734  0.96607872  1
  H  H18  1  0.15225711  0.34233102  0.95139455  1
  H  H19  1  0.06505230  0.24109304  0.81405707  1
  H  H20  1  0.52427737  0.75480269  0.68236446  1
  H  H21  1  0.62696002  0.66684951  0.51936698  1
  H  H22  1  0.61699878  0.84152078  0.51105861  1
  H  H23  1  0.32513115  0.82175702  0.47564076  1
  H  H24  1  0.33711870  0.66011786  0.48383383  1
  H  H25  1  0.42117664  0.74349409  0.32121444  1
  H  H26  1  0.00846942  0.76179412  0.82036403  1
  H  H27  1  0.10832178  0.85297683  0.98281930  1
  H  H28  1  0.12687843  0.67882033  0.97601880  1
  H  H29  1  0.82253525  0.82375377  0.03663612  1
  H  H30  1  0.84240711  0.66167078  0.03463352  1
  H  H31  1  0.93118696  0.75071889  0.18883097  1
  Si  Si32  1  0.49843185  0.00035245  0.00150680  1
  Si  Si33  1  0.99041696  0.49248329  0.45375299  1
  Cu  Cu34  1  0.96253545  0.00705124  0.42996268  1
  Cu  Cu35  1  0.52845384  0.50941293  0.82726875  1
  Br  Br36  1  0.51225730  0.23928564  0.98639581  1
  Br  Br37  1  0.26871778  0.01434270  0.20003148  1
  Br  Br38  1  0.69214542  0.01085481  0.26156574  1
  Br  Br39  1  0.00469621  0.21791595  0.52838444  1
  Br  Br40  1  0.31994434  0.99372119  0.76326980  1
  Br  Br41  1  0.73324104  0.98416513  0.82058964  1
  Br  Br42  1  0.49228617  0.76114941  0.03432155  1
  Br  Br43  1  0.74448768  0.48343976  0.29632681  1
  Br  Br44  1  0.18582734  0.49338901  0.23077014  1
  Br  Br45  1  0.99646115  0.78469705  0.47599039  1
  Br  Br46  1  0.26927663  0.51228418  0.74042947  1
  Br  Br47  1  0.79965232  0.50374429  0.80694419  1
