# generated using pymatgen
data_CaSiH12C2(Br3N)2
_symmetry_space_group_name_H-M   'P 1'
_cell_length_a   7.91061405
_cell_length_b   11.26551373
_cell_length_c   7.76145090
_cell_angle_alpha   89.33054274
_cell_angle_beta   90.00530995
_cell_angle_gamma   90.00498852
_symmetry_Int_Tables_number   1
_chemical_formula_structural   CaSiH12C2(Br3N)2
_chemical_formula_sum   'Ca2 Si2 H24 C4 Br12 N4'
_cell_volume   691.63101921
_cell_formula_units_Z   2
loop_
 _symmetry_equiv_pos_site_id
 _symmetry_equiv_pos_as_xyz
  1  'x, y, z'
loop_
 _atom_site_type_symbol
 _atom_site_label
 _atom_site_symmetry_multiplicity
 _atom_site_fract_x
 _atom_site_fract_y
 _atom_site_fract_z
 _atom_site_occupancy
  C  C0  1  0.39528009  0.25019009  0.41291756  1
  C  C1  1  0.89629489  0.24994889  0.08793755  1
  C  C2  1  0.60471733  0.74981526  0.58709543  1
  C  C3  1  0.10371023  0.75005226  0.91207294  1
  N  N4  1  0.54642761  0.24972637  0.52491832  1
  N  N5  1  0.04687909  0.25027111  0.97519747  1
  N  N6  1  0.45356823  0.75027967  0.47509725  1
  N  N7  1  0.95312749  0.74972651  0.02481465  1
  H  H8  1  0.43606423  0.25029465  0.27840155  1
  H  H9  1  0.32202137  0.17015519  0.44020323  1
  H  H10  1  0.32074933  0.32931085  0.43926654  1
  H  H11  1  0.61941627  0.17534867  0.49964548  1
  H  H12  1  0.61977751  0.32443115  0.49946631  1
  H  H13  1  0.51509006  0.24857547  0.65551592  1
  H  H14  1  0.93784119  0.24988037  0.22224658  1
  H  H15  1  0.82150388  0.17085636  0.06211908  1
  H  H16  1  0.82302235  0.33002373  0.06104482  1
  H  H17  1  0.12020466  0.17553588  0.00033088  1
  H  H18  1  0.12006923  0.32461253  0.00001629  1
  H  H19  1  0.01486406  0.25139429  0.84471623  1
  H  H20  1  0.56393372  0.74971221  0.72161222  1
  H  H21  1  0.67924535  0.67069322  0.56074785  1
  H  H22  1  0.67797758  0.82984885  0.55980863  1
  H  H23  1  0.38058108  0.82465776  0.50037028  1
  H  H24  1  0.38021890  0.67557506  0.50054952  1
  H  H25  1  0.48490542  0.75143071  0.34449840  1
  H  H26  1  0.06216282  0.75012275  0.77776464  1
  H  H27  1  0.17850049  0.82914461  0.93789413  1
  H  H28  1  0.17698358  0.66997709  0.93896155  1
  H  H29  1  0.87979876  0.82446090  0.99968203  1
  H  H30  1  0.87993942  0.67538372  0.99999429  1
  H  H31  1  0.98514232  0.74860325  0.15529517  1
  Si  Si32  1  0.50000291  0.00000076  0.00001220  1
  Si  Si33  1  0.99999634  0.50000384  0.49999742  1
  Ca  Ca34  1  0.00000162  0.00000264  0.50000989  1
  Ca  Ca35  1  0.49999932  0.50000378  0.99999908  1
  Br  Br36  1  0.47556721  0.24432307  0.94690710  1
  Br  Br37  1  0.19790574  0.00721647  0.18166769  1
  Br  Br38  1  0.68271245  0.01030222  0.30745780  1
  Br  Br39  1  0.97491532  0.25567491  0.55358768  1
  Br  Br40  1  0.31728864  0.98970257  0.69255981  1
  Br  Br41  1  0.80210182  0.99278264  0.81835129  1
  Br  Br42  1  0.52443554  0.75568675  0.05310779  1
  Br  Br43  1  0.69788067  0.49268875  0.31827092  1
  Br  Br44  1  0.18279531  0.48978110  0.19256593  1
  Br  Br45  1  0.02507976  0.74432749  0.44642448  1
  Br  Br46  1  0.30212021  0.50731815  0.68173320  1
  Br  Br47  1  0.81720234  0.51022371  0.80744152  1
