# generated using pymatgen
data_BiBH12C2(I3N)2
_symmetry_space_group_name_H-M   'P 1'
_cell_length_a   8.57638703
_cell_length_b   11.64835426
_cell_length_c   9.10511460
_cell_angle_alpha   80.15937294
_cell_angle_beta   84.72130265
_cell_angle_gamma   80.22799543
_symmetry_Int_Tables_number   1
_chemical_formula_structural   BiBH12C2(I3N)2
_chemical_formula_sum   'Bi2 B2 H24 C4 I12 N4'
_cell_volume   881.36114139
_cell_formula_units_Z   2
loop_
 _symmetry_equiv_pos_site_id
 _symmetry_equiv_pos_as_xyz
  1  'x, y, z'
loop_
 _atom_site_type_symbol
 _atom_site_label
 _atom_site_symmetry_multiplicity
 _atom_site_fract_x
 _atom_site_fract_y
 _atom_site_fract_z
 _atom_site_occupancy
  C  C0  1  0.48152439  0.24935453  0.43958127  1
  C  C1  1  0.91294236  0.24618624  0.04057331  1
  C  C2  1  0.50356390  0.77371280  0.55620605  1
  C  C3  1  0.12564016  0.73854002  0.93972871  1
  N  N4  1  0.58694215  0.24088333  0.56323670  1
  N  N5  1  0.03838287  0.26773688  0.91987514  1
  N  N6  1  0.35745120  0.79145234  0.47554905  1
  N  N7  1  0.97497107  0.74597572  0.03519333  1
  H  H8  1  0.54149189  0.28531729  0.33456697  1
  H  H9  1  0.45932499  0.16069249  0.43268595  1
  H  H10  1  0.37039079  0.30686956  0.46339074  1
  H  H11  1  0.69212920  0.18385413  0.54753923  1
  H  H12  1  0.61380083  0.32273238  0.57179419  1
  H  H13  1  0.53357288  0.20844025  0.66552060  1
  H  H14  1  0.96498366  0.23168946  0.14871568  1
  H  H15  1  0.86486492  0.16798301  0.02616442  1
  H  H16  1  0.81918673  0.32321802  0.03161758  1
  H  H17  1  0.12169565  0.19263685  0.91393281  1
  H  H18  1  0.09747116  0.33438422  0.93791247  1
  H  H19  1  0.99214499  0.29427458  0.81574383  1
  H  H20  1  0.47513501  0.75498187  0.67702977  1
  H  H21  1  0.59042741  0.69968278  0.52403952  1
  H  H22  1  0.55879632  0.85371752  0.53165678  1
  H  H23  1  0.04323523  0.80028028  0.60706690  1
  H  H24  1  0.31254416  0.71338259  0.49279739  1
  H  H25  1  0.38561868  0.80944487  0.36241378  1
  H  H26  1  0.10475216  0.70759891  0.83725170  1
  H  H27  1  0.15973900  0.82647407  0.91375642  1
  H  H28  1  0.21868737  0.67636307  0.99883758  1
  H  H29  1  0.89691039  0.82194101  0.99716167  1
  H  H30  1  0.91798392  0.67480842  0.03030421  1
  H  H31  1  0.99241181  0.74655523  0.14647651  1
  B  B32  1  0.40934670  0.99950002  0.00579054  1
  B  B33  1  0.97052190  0.46993391  0.35832580  1
  Bi  Bi34  1  0.09428922  0.94655759  0.53408925  1
  Bi  Bi35  1  0.52364194  0.48655243  0.99610432  1
  I  I36  1  0.49617855  0.16969417  0.02485146  1
  I  I37  1  0.17630438  0.98833374  0.14099057  1
  I  I38  1  0.80261430  0.99414433  0.35940833  1
  I  I39  1  0.99748712  0.30285817  0.52723800  1
  I  I40  1  0.35731147  0.02136791  0.75505790  1
  I  I41  1  0.86968428  0.02187909  0.78866584  1
  I  I42  1  0.56428078  0.82893305  0.07384938  1
  I  I43  1  0.71121997  0.51366692  0.29898992  1
  I  I44  1  0.14670342  0.43555030  0.16456212  1
  I  I45  1  0.02067692  0.62964482  0.43871437  1
  I  I46  1  0.34803638  0.47963225  0.73236056  1
  I  I47  1  0.80300915  0.56066483  0.82297794  1
