# generated using pymatgen
data_TlPH12C2(Br3N)2
_symmetry_space_group_name_H-M   'P 1'
_cell_length_a   8.07661415
_cell_length_b   11.40444391
_cell_length_c   7.80915303
_cell_angle_alpha   85.94837292
_cell_angle_beta   89.99760674
_cell_angle_gamma   90.03113746
_symmetry_Int_Tables_number   1
_chemical_formula_structural   TlPH12C2(Br3N)2
_chemical_formula_sum   'Tl2 P2 H24 C4 Br12 N4'
_cell_volume   717.49778697
_cell_formula_units_Z   2
loop_
 _symmetry_equiv_pos_site_id
 _symmetry_equiv_pos_as_xyz
  1  'x, y, z'
loop_
 _atom_site_type_symbol
 _atom_site_label
 _atom_site_symmetry_multiplicity
 _atom_site_fract_x
 _atom_site_fract_y
 _atom_site_fract_z
 _atom_site_occupancy
  C  C0  1  0.39968759  0.24930889  0.41360982  1
  C  C1  1  0.90049479  0.25072237  0.08711602  1
  C  C2  1  0.60030893  0.75069594  0.58640483  1
  C  C3  1  0.09951148  0.74927929  0.91289367  1
  N  N4  1  0.54998171  0.24637885  0.52279800  1
  N  N5  1  0.05032400  0.25359740  0.97723108  1
  N  N6  1  0.45001448  0.75362693  0.47721746  1
  N  N7  1  0.94968044  0.74640121  0.02277632  1
  H  H8  1  0.43771712  0.25232428  0.27890787  1
  H  H9  1  0.32845427  0.16917692  0.44479088  1
  H  H10  1  0.32691273  0.32679653  0.43891128  1
  H  H11  1  0.62125116  0.17384633  0.49848509  1
  H  H12  1  0.62161542  0.32135499  0.49564939  1
  H  H13  1  0.52095415  0.24068633  0.65352209  1
  H  H14  1  0.93910304  0.24767455  0.22161372  1
  H  H15  1  0.82738831  0.17325613  0.06214308  1
  H  H16  1  0.82934546  0.33088811  0.05632052  1
  H  H17  1  0.12189499  0.17860666  0.00412270  1
  H  H18  1  0.12186012  0.32612179  0.00115107  1
  H  H19  1  0.02077967  0.25925193  0.84663301  1
  H  H20  1  0.56228109  0.74768213  0.72110667  1
  H  H21  1  0.67308236  0.67320666  0.56110434  1
  H  H22  1  0.67154490  0.83082681  0.55522170  1
  H  H23  1  0.37874641  0.82615994  0.50153148  1
  H  H24  1  0.37838022  0.67865103  0.50436729  1
  H  H25  1  0.47904103  0.75931941  0.34649391  1
  H  H26  1  0.06090422  0.75232779  0.77839585  1
  H  H27  1  0.17261541  0.82674588  0.93786907  1
  H  H28  1  0.17066183  0.66911424  0.94368781  1
  H  H29  1  0.87810777  0.82139151  0.99588492  1
  H  H30  1  0.87814746  0.67387557  0.99885182  1
  H  H31  1  0.97922234  0.74074641  0.15337511  1
  P  P32  1  0.50000155  0.00000079  0.00000998  1
  P  P33  1  0.99999935  0.50000280  0.49999750  1
  Tl  Tl34  1  0.00000025  0.00000273  0.50001018  1
  Tl  Tl35  1  0.50000739  0.50000170  0.99999547  1
  Br  Br36  1  0.47767160  0.22638064  0.94455392  1
  Br  Br37  1  0.21905914  0.00076175  0.16071383  1
  Br  Br38  1  0.65456759  0.01553326  0.28920475  1
  Br  Br39  1  0.97719630  0.27363485  0.55574852  1
  Br  Br40  1  0.34543609  0.98447207  0.71081356  1
  Br  Br41  1  0.78094908  0.99923943  0.83930312  1
  Br  Br42  1  0.52233112  0.77362611  0.05546273  1
  Br  Br43  1  0.71924874  0.49913860  0.33897114  1
  Br  Br44  1  0.15487598  0.48453564  0.21096145  1
  Br  Br45  1  0.02279890  0.72636911  0.44426071  1
  Br  Br46  1  0.28075142  0.50086688  0.66103904  1
  Br  Br47  1  0.84511435  0.51546909  0.78906282  1
