# generated using pymatgen
data_AgPH12C2(Br3N)2
_symmetry_space_group_name_H-M   'P 1'
_cell_length_a   7.60402661
_cell_length_b   10.89388650
_cell_length_c   8.39404992
_cell_angle_alpha   87.16022772
_cell_angle_beta   94.75633452
_cell_angle_gamma   90.23174039
_symmetry_Int_Tables_number   1
_chemical_formula_structural   AgPH12C2(Br3N)2
_chemical_formula_sum   'Ag2 P2 H24 C4 Br12 N4'
_cell_volume   692.09582733
_cell_formula_units_Z   2
loop_
 _symmetry_equiv_pos_site_id
 _symmetry_equiv_pos_as_xyz
  1  'x, y, z'
loop_
 _atom_site_type_symbol
 _atom_site_label
 _atom_site_symmetry_multiplicity
 _atom_site_fract_x
 _atom_site_fract_y
 _atom_site_fract_z
 _atom_site_occupancy
  C  C0  1  0.49598615  0.24394024  0.43059938  1
  C  C1  1  0.01812844  0.25756235  0.06681533  1
  C  C2  1  0.47526472  0.75234540  0.58872897  1
  C  C3  1  0.00647972  0.72890130  0.92535401  1
  N  N4  1  0.45941928  0.24826684  0.60089580  1
  N  N5  1  0.03690230  0.25498282  0.89306492  1
  N  N6  1  0.50430126  0.75599162  0.41592632  1
  N  N7  1  0.97460094  0.76429696  0.08923552  1
  H  H8  1  0.62227324  0.19756202  0.42322879  1
  H  H9  1  0.38987338  0.19390073  0.36584507  1
  H  H10  1  0.50374752  0.33821980  0.38050744  1
  H  H11  1  0.42907504  0.16249965  0.65182715  1
  H  H12  1  0.56620354  0.28703378  0.66669752  1
  H  H13  1  0.35374467  0.30601890  0.61518477  1
  H  H14  1  0.14613828  0.23727874  0.13163355  1
  H  H15  1  0.92215668  0.18804988  0.10069888  1
  H  H16  1  0.97257239  0.34888520  0.09344187  1
  H  H17  1  0.08147371  0.17023838  0.85962407  1
  H  H18  1  0.12554458  0.32254903  0.85616696  1
  H  H19  1  0.91876236  0.27736990  0.82740678  1
  H  H20  1  0.33411174  0.74150793  0.60306329  1
  H  H21  1  0.54775381  0.67342299  0.64672830  1
  H  H22  1  0.52508385  0.83720465  0.64058684  1
  H  H23  1  0.44223383  0.83115751  0.35291908  1
  H  H24  1  0.45463876  0.67828428  0.36202220  1
  H  H25  1  0.63930062  0.76010228  0.40180750  1
  H  H26  1  0.89340701  0.67617680  0.87649492  1
  H  H27  1  0.02271503  0.81258925  0.85067625  1
  H  H28  1  0.12670323  0.67349643  0.93101367  1
  H  H29  1  0.84849332  0.79946700  0.09240165  1
  H  H30  1  0.98492047  0.68978608  0.17076506  1
  H  H31  1  0.06513346  0.83056473  0.13086528  1
  P  P32  1  0.54191797  0.02238608  0.01527155  1
  P  P33  1  0.99461561  0.48077979  0.46278135  1
  Ag  Ag34  1  0.09780880  0.95560172  0.49540602  1
  Ag  Ag35  1  0.54827522  0.53184991  0.92668099  1
  Br  Br36  1  0.51215860  0.23832330  0.01592882  1
  Br  Br37  1  0.24940618  0.98326721  0.22773925  1
  Br  Br38  1  0.74339005  0.00201232  0.24208516  1
  Br  Br39  1  0.01195609  0.26257286  0.46983313  1
  Br  Br40  1  0.24218684  0.01354562  0.77119127  1
  Br  Br41  1  0.74392383  0.01861784  0.81797452  1
  Br  Br42  1  0.51035352  0.75224458  0.02232912  1
  Br  Br43  1  0.75582613  0.50020795  0.25635545  1
  Br  Br44  1  0.22073895  0.51961303  0.28186881  1
  Br  Br45  1  0.93942082  0.74059709  0.50377567  1
  Br  Br46  1  0.24721212  0.48639862  0.73660089  1
  Br  Br47  1  0.75368968  0.45240692  0.71224745  1
