# generated using pymatgen
data_GaPH12C2(Br3N)2
_symmetry_space_group_name_H-M   'P 1'
_cell_length_a   7.54871212
_cell_length_b   11.03144259
_cell_length_c   8.27557183
_cell_angle_alpha   89.66678809
_cell_angle_beta   91.62833161
_cell_angle_gamma   89.60463321
_symmetry_Int_Tables_number   1
_chemical_formula_structural   GaPH12C2(Br3N)2
_chemical_formula_sum   'Ga2 P2 H24 C4 Br12 N4'
_cell_volume   688.82607950
_cell_formula_units_Z   2
loop_
 _symmetry_equiv_pos_site_id
 _symmetry_equiv_pos_as_xyz
  1  'x, y, z'
loop_
 _atom_site_type_symbol
 _atom_site_label
 _atom_site_symmetry_multiplicity
 _atom_site_fract_x
 _atom_site_fract_y
 _atom_site_fract_z
 _atom_site_occupancy
  C  C0  1  0.51468885  0.25191270  0.42633005  1
  C  C1  1  0.00112272  0.24028668  0.07067189  1
  C  C2  1  0.47088708  0.75056982  0.56978649  1
  C  C3  1  0.00735433  0.74467504  0.93827536  1
  N  N4  1  0.45709131  0.24378826  0.59603592  1
  N  N5  1  0.03530071  0.26359684  0.89766255  1
  N  N6  1  0.50842075  0.74681936  0.39504069  1
  N  N7  1  0.01758753  0.75377445  0.11702461  1
  H  H8  1  0.61819549  0.18409035  0.40723169  1
  H  H9  1  0.40066698  0.23482745  0.34552426  1
  H  H10  1  0.56612280  0.34291842  0.40469903  1
  H  H11  1  0.39490516  0.16198589  0.62262798  1
  H  H12  1  0.56082100  0.25237364  0.67931694  1
  H  H13  1  0.36848956  0.31331200  0.62141367  1
  H  H14  1  0.10489577  0.17936034  0.11921063  1
  H  H15  1  0.87104081  0.19833194  0.07958474  1
  H  H16  1  0.00316513  0.32658628  0.13483194  1
  H  H17  1  0.05613158  0.18320264  0.83527119  1
  H  H18  1  0.14909406  0.31447686  0.88512978  1
  H  H19  1  0.93277610  0.31212049  0.84078843  1
  H  H20  1  0.32717227  0.74961180  0.58373681  1
  H  H21  1  0.53213796  0.67111390  0.62848751  1
  H  H22  1  0.52712694  0.83346018  0.62081711  1
  H  H23  1  0.45408078  0.82324500  0.33670160  1
  H  H24  1  0.45233253  0.67049019  0.34083941  1
  H  H25  1  0.64394233  0.74429439  0.37864167  1
  H  H26  1  0.90399770  0.68000749  0.90369938  1
  H  H27  1  0.97608483  0.83411343  0.88705039  1
  H  H28  1  0.13583325  0.71360848  0.89615612  1
  H  H29  1  0.89572877  0.77359392  0.16395187  1
  H  H30  1  0.06297533  0.67301432  0.17049205  1
  H  H31  1  0.10265547  0.82285006  0.15633511  1
  P  P32  1  0.52697303  0.98861710  0.99479830  1
  P  P33  1  0.99023515  0.48641386  0.50986256  1
  Ga  Ga34  1  0.00358693  0.98772120  0.49968563  1
  Ga  Ga35  1  0.49914413  0.49580031  0.02066320  1
  Br  Br36  1  0.49069858  0.25818936  0.00024455  1
  Br  Br37  1  0.25777172  0.98086261  0.27302035  1
  Br  Br38  1  0.73855965  0.99101001  0.21482778  1
  Br  Br39  1  0.00212864  0.26989255  0.48522279  1
  Br  Br40  1  0.23063054  0.01065840  0.75419448  1
  Br  Br41  1  0.72513854  0.01668264  0.78303098  1
  Br  Br42  1  0.51330976  0.77309901  0.98120674  1
  Br  Br43  1  0.76336033  0.51255722  0.23879085  1
  Br  Br44  1  0.25449069  0.51534093  0.25497245  1
  Br  Br45  1  0.95621276  0.74925072  0.51545010  1
  Br  Br46  1  0.23470618  0.49703469  0.71575238  1
  Br  Br47  1  0.76025120  0.47853505  0.70520661  1
