# generated using pymatgen
data_CuPH12C2(Br3N)2
_symmetry_space_group_name_H-M   'P 1'
_cell_length_a   7.71746706
_cell_length_b   10.77563771
_cell_length_c   8.13608927
_cell_angle_alpha   89.33577107
_cell_angle_beta   89.98273131
_cell_angle_gamma   90.00176361
_symmetry_Int_Tables_number   1
_chemical_formula_structural   CuPH12C2(Br3N)2
_chemical_formula_sum   'Cu2 P2 H24 C4 Br12 N4'
_cell_volume   676.55680471
_cell_formula_units_Z   2
loop_
 _symmetry_equiv_pos_site_id
 _symmetry_equiv_pos_as_xyz
  1  'x, y, z'
loop_
 _atom_site_type_symbol
 _atom_site_label
 _atom_site_symmetry_multiplicity
 _atom_site_fract_x
 _atom_site_fract_y
 _atom_site_fract_z
 _atom_site_occupancy
  C  C0  1  0.48813195  0.25140949  0.43032283  1
  C  C1  1  0.98811634  0.24860342  0.06941461  1
  C  C2  1  0.50727907  0.75582848  0.56996419  1
  C  C3  1  0.00731643  0.74421269  0.93021972  1
  N  N4  1  0.53843938  0.24974850  0.60606829  1
  N  N5  1  0.03841036  0.25034189  0.89364345  1
  N  N6  1  0.45148162  0.75301971  0.39590707  1
  N  N7  1  0.95158163  0.74687549  0.10433385  1
  H  H8  1  0.60542774  0.25587150  0.35536407  1
  H  H9  1  0.41624635  0.16622151  0.40333085  1
  H  H10  1  0.40675403  0.33247543  0.40579601  1
  H  H11  1  0.61832352  0.17518027  0.63415580  1
  H  H12  1  0.60619005  0.32983141  0.63945548  1
  H  H13  1  0.43343246  0.24164934  0.68455993  1
  H  H14  1  0.10543131  0.24408875  0.14428800  1
  H  H15  1  0.90672932  0.16752301  0.09391973  1
  H  H16  1  0.91625723  0.33377230  0.09654217  1
  H  H17  1  0.10618005  0.17029529  0.86015994  1
  H  H18  1  0.11824372  0.32495486  0.86553396  1
  H  H19  1  0.93337245  0.25845377  0.81522443  1
  H  H20  1  0.39169384  0.75882696  0.64723966  1
  H  H21  1  0.58320464  0.67235046  0.59763554  1
  H  H22  1  0.58539277  0.83911544  0.58945622  1
  H  H23  1  0.37708353  0.83041612  0.36168436  1
  H  H24  1  0.37814808  0.67454370  0.37110557  1
  H  H25  1  0.55601866  0.74928735  0.31690369  1
  H  H26  1  0.89168753  0.74129364  0.85305136  1
  H  H27  1  0.08323349  0.82772089  0.90260559  1
  H  H28  1  0.08540468  0.66095079  0.91051029  1
  H  H29  1  0.87833080  0.82534039  0.12934093  1
  H  H30  1  0.87715452  0.66946576  0.13850142  1
  H  H31  1  0.05617207  0.75047425  0.18324866  1
  P  P32  1  0.52292473  0.98582172  1.00008581  1
  P  P33  1  0.02285209  0.51415879  0.50003119  1
  Cu  Cu34  1  0.14005388  0.06904536  0.47057616  1
  Cu  Cu35  1  0.64005477  0.43093413  0.02973315  1
  Br  Br36  1  0.45849411  0.25704917  0.01100738  1
  Br  Br37  1  0.21161343  0.97377556  0.22169503  1
  Br  Br38  1  0.70203947  0.99003667  0.23890325  1
  Br  Br39  1  0.95849159  0.24296701  0.48883839  1
  Br  Br40  1  0.25919913  0.01289676  0.73133378  1
  Br  Br41  1  0.75202884  0.01067537  0.80913591  1
  Br  Br42  1  0.51034923  0.76768037  0.98391857  1
  Br  Br43  1  0.71157838  0.52614742  0.27859902  1
  Br  Br44  1  0.20199103  0.50995667  0.26107214  1
  Br  Br45  1  0.01024469  0.73229527  0.51625289  1
  Br  Br46  1  0.25205371  0.48935618  0.69077068  1
  Br  Br47  1  0.75918503  0.48713895  0.76885560  1
