# generated using pymatgen
data_ScPH12C2(Br3N)2
_symmetry_space_group_name_H-M   'P 1'
_cell_length_a   7.77217301
_cell_length_b   12.47529336
_cell_length_c   7.47327282
_cell_angle_alpha   99.31756219
_cell_angle_beta   89.95571434
_cell_angle_gamma   89.86547961
_symmetry_Int_Tables_number   1
_chemical_formula_structural   ScPH12C2(Br3N)2
_chemical_formula_sum   'Sc2 P2 H24 C4 Br12 N4'
_cell_volume   715.04670669
_cell_formula_units_Z   2
loop_
 _symmetry_equiv_pos_site_id
 _symmetry_equiv_pos_as_xyz
  1  'x, y, z'
loop_
 _atom_site_type_symbol
 _atom_site_label
 _atom_site_symmetry_multiplicity
 _atom_site_fract_x
 _atom_site_fract_y
 _atom_site_fract_z
 _atom_site_occupancy
  C  C0  1  0.40926687  0.24271156  0.39789758  1
  C  C1  1  0.91145778  0.25704858  0.10197867  1
  C  C2  1  0.60163966  0.75604601  0.60022511  1
  C  C3  1  0.09992227  0.74415927  0.89989543  1
  N  N4  1  0.57678028  0.25211338  0.49394688  1
  N  N5  1  0.07862069  0.24729732  0.00482201  1
  N  N6  1  0.43545892  0.73657945  0.50325254  1
  N  N7  1  0.93433636  0.76409482  0.99845878  1
  H  H8  1  0.43377917  0.22466728  0.25177678  1
  H  H9  1  0.33656542  0.17670358  0.44154397  1
  H  H10  1  0.33837620  0.31918458  0.43312068  1
  H  H11  1  0.64828265  0.18106731  0.46061989  1
  H  H12  1  0.64780970  0.31643793  0.46071748  1
  H  H13  1  0.55932768  0.26587098  0.63482518  1
  H  H14  1  0.93639516  0.27545840  0.24792072  1
  H  H15  1  0.84100439  0.18058768  0.06773199  1
  H  H16  1  0.83809231  0.32293802  0.05823866  1
  H  H17  1  0.15017486  0.18292020  0.03765406  1
  H  H18  1  0.14987740  0.31824360  0.03752804  1
  H  H19  1  0.06049845  0.23348121  0.86408095  1
  H  H20  1  0.57523208  0.77412823  0.74589971  1
  H  H21  1  0.68405748  0.68392809  0.56782554  1
  H  H22  1  0.66374685  0.82536234  0.55487517  1
  H  H23  1  0.35339253  0.80270612  0.53183044  1
  H  H24  1  0.37310937  0.66928364  0.53804461  1
  H  H25  1  0.45445461  0.72234895  0.36261163  1
  H  H26  1  0.07267950  0.72610063  0.75445871  1
  H  H27  1  0.18221999  0.81608371  0.93148424  1
  H  H28  1  0.16258303  0.67472293  0.94475371  1
  H  H29  1  0.87174488  0.83165101  0.96441143  1
  H  H30  1  0.85211320  0.69828123  0.97044541  1
  H  H31  1  0.95424701  0.77812044  0.13892220  1
  P  P32  1  0.41647363  0.99176681  0.98088311  1
  P  P33  1  0.91652341  0.50834133  0.51866480  1
  Sc  Sc34  1  0.96589592  0.99739423  0.53479502  1
  Sc  Sc35  1  0.46591935  0.50261651  0.96487073  1
  Br  Br36  1  0.49428229  0.29438073  0.93023690  1
  Br  Br37  1  0.16948302  0.01643657  0.16262108  1
  Br  Br38  1  0.70402334  0.99357233  0.32842027  1
  Br  Br39  1  0.99228538  0.20560301  0.56967197  1
  Br  Br40  1  0.30955429  0.01218483  0.68863538  1
  Br  Br41  1  0.81465594  0.98962208  0.82691134  1
  Br  Br42  1  0.53195502  0.70488628  0.07135463  1
  Br  Br43  1  0.66986282  0.48278629  0.33733604  1
  Br  Br44  1  0.20359831  0.50608521  0.17085352  1
  Br  Br45  1  0.03349584  0.79505317  0.42914116  1
  Br  Br46  1  0.31498730  0.51078513  0.67289665  1
  Br  Br47  1  0.80978115  0.48823530  0.81120576  1
