# generated using pymatgen
data_CaH12PbC2(Br3N)2
_symmetry_space_group_name_H-M   'P 1'
_cell_length_a   8.12208005
_cell_length_b   11.63995410
_cell_length_c   7.89364358
_cell_angle_alpha   89.61693846
_cell_angle_beta   90.00850411
_cell_angle_gamma   90.00480408
_symmetry_Int_Tables_number   1
_chemical_formula_structural   CaH12PbC2(Br3N)2
_chemical_formula_sum   'Ca2 H24 Pb2 C4 Br12 N4'
_cell_volume   746.25341900
_cell_formula_units_Z   2
loop_
 _symmetry_equiv_pos_site_id
 _symmetry_equiv_pos_as_xyz
  1  'x, y, z'
loop_
 _atom_site_type_symbol
 _atom_site_label
 _atom_site_symmetry_multiplicity
 _atom_site_fract_x
 _atom_site_fract_y
 _atom_site_fract_z
 _atom_site_occupancy
  C  C0  1  0.39314714  0.25020147  0.41264249  1
  C  C1  1  0.89430981  0.24999712  0.08850607  1
  C  C2  1  0.60684979  0.74980243  0.58737128  1
  C  C3  1  0.10569664  0.75000356  0.91150703  1
  N  N4  1  0.54070445  0.24987524  0.52293910  1
  N  N5  1  0.04116320  0.25016770  0.97727907  1
  N  N6  1  0.45929280  0.75013002  0.47707388  1
  N  N7  1  0.95884452  0.74982997  0.02273660  1
  H  H8  1  0.43313209  0.25027433  0.28025910  1
  H  H9  1  0.32127449  0.17288044  0.43914021  1
  H  H10  1  0.32113184  0.32729268  0.43860208  1
  H  H11  1  0.61148308  0.17753539  0.49771902  1
  H  H12  1  0.61204534  0.32227474  0.49764464  1
  H  H13  1  0.51017161  0.24926840  0.65149894  1
  H  H14  1  0.93516820  0.24996953  0.22061516  1
  H  H15  1  0.82197103  0.17294210  0.06314022  1
  H  H16  1  0.82241427  0.32738130  0.06243663  1
  H  H17  1  0.11251988  0.17771694  0.00223896  1
  H  H18  1  0.11220800  0.32246412  0.00202808  1
  H  H19  1  0.00990342  0.25074319  0.84891153  1
  H  H20  1  0.56686584  0.74973189  0.71975412  1
  H  H21  1  0.67886375  0.67271032  0.56141226  1
  H  H22  1  0.67872442  0.82712278  0.56087100  1
  H  H23  1  0.38851391  0.82246921  0.50229560  1
  H  H24  1  0.38795125  0.67772913  0.50236900  1
  H  H25  1  0.48982480  0.75073660  0.34851507  1
  H  H26  1  0.06483670  0.75003358  0.77939986  1
  H  H27  1  0.17803467  0.82705821  0.93687691  1
  H  H28  1  0.17759172  0.67261958  0.93757288  1
  H  H29  1  0.88748451  0.82227976  0.99777963  1
  H  H30  1  0.88780109  0.67753211  0.99798693  1
  H  H31  1  0.99010542  0.74925378  0.15110465  1
  Ca  Ca32  1  0.50000273  0.00000644  0.00000826  1
  Ca  Ca33  1  0.99999307  0.50000106  0.49999557  1
  Pb  Pb34  1  0.00000153  0.00000228  0.50000993  1
  Pb  Pb35  1  0.49999771  0.50000813  0.99999481  1
  Br  Br36  1  0.46953207  0.24512406  0.93816012  1
  Br  Br37  1  0.18596905  0.01359652  0.16979750  1
  Br  Br38  1  0.67361629  0.01577430  0.31979402  1
  Br  Br39  1  0.96898585  0.25487838  0.56240404  1
  Br  Br40  1  0.32639124  0.98423439  0.68022269  1
  Br  Br41  1  0.81403721  0.98640312  0.83022132  1
  Br  Br42  1  0.53047234  0.75488917  0.06185526  1
  Br  Br43  1  0.68594904  0.48622164  0.33015810  1
  Br  Br44  1  0.17372244  0.48442022  0.18026014  1
  Br  Br45  1  0.03101019  0.74512563  0.43761140  1
  Br  Br46  1  0.31403836  0.51378119  0.66983598  1
  Br  Br47  1  0.82627497  0.51558414  0.81973946  1
