# generated using pymatgen
data_CaHgH12C2(Br3N)2
_symmetry_space_group_name_H-M   'P 1'
_cell_length_a   7.92156814
_cell_length_b   11.44046904
_cell_length_c   7.78570691
_cell_angle_alpha   90.00951829
_cell_angle_beta   90.01296773
_cell_angle_gamma   90.00696362
_symmetry_Int_Tables_number   1
_chemical_formula_structural   CaHgH12C2(Br3N)2
_chemical_formula_sum   'Ca2 Hg2 H24 C4 Br12 N4'
_cell_volume   705.59098413
_cell_formula_units_Z   2
loop_
 _symmetry_equiv_pos_site_id
 _symmetry_equiv_pos_as_xyz
  1  'x, y, z'
loop_
 _atom_site_type_symbol
 _atom_site_label
 _atom_site_symmetry_multiplicity
 _atom_site_fract_x
 _atom_site_fract_y
 _atom_site_fract_z
 _atom_site_occupancy
  C  C0  1  0.39260030  0.24993839  0.41171659  1
  C  C1  1  0.89373337  0.25024514  0.08931729  1
  C  C2  1  0.60739622  0.75006604  0.58829617  1
  C  C3  1  0.10627273  0.74975647  0.91069596  1
  N  N4  1  0.54325422  0.24996687  0.52388596  1
  N  N5  1  0.04371187  0.25005651  0.97629477  1
  N  N6  1  0.45674212  0.75003792  0.47612757  1
  N  N7  1  0.95629557  0.74994133  0.02372041  1
  H  H8  1  0.43381765  0.25042423  0.27768680  1
  H  H9  1  0.31803738  0.17182890  0.43821971  1
  H  H10  1  0.31926675  0.32854221  0.43831847  1
  H  H11  1  0.61654496  0.17653325  0.49935332  1
  H  H12  1  0.61631926  0.32333180  0.49825234  1
  H  H13  1  0.51178132  0.25050182  0.65423479  1
  H  H14  1  0.93578247  0.24980922  0.22308927  1
  H  H15  1  0.82007813  0.17166963  0.06329302  1
  H  H16  1  0.81915592  0.32840267  0.06318586  1
  H  H17  1  0.11677999  0.17664818  0.00161374  1
  H  H18  1  0.11726025  0.32345534  0.00039873  1
  H  H19  1  0.01152011  0.24950405  0.84612846  1
  H  H20  1  0.56618038  0.74958183  0.72232638  1
  H  H21  1  0.68072825  0.67146077  0.56169512  1
  H  H22  1  0.68196129  0.82817431  0.56179130  1
  H  H23  1  0.38345160  0.82347201  0.50066101  1
  H  H24  1  0.38367653  0.67667326  0.50176144  1
  H  H25  1  0.48821446  0.74950325  0.34577921  1
  H  H26  1  0.06422238  0.75019431  0.77692456  1
  H  H27  1  0.17992771  0.82833163  0.93672322  1
  H  H28  1  0.18085119  0.67159860  0.93682339  1
  H  H29  1  0.88322432  0.82334845  0.99840366  1
  H  H30  1  0.88275003  0.67654147  0.99961570  1
  H  H31  1  0.98848853  0.75049362  0.15388614  1
  Ca  Ca32  1  0.50000250  0.00000538  0.00000771  1
  Ca  Ca33  1  0.99999420  0.50000177  0.49999735  1
  Hg  Hg34  1  0.00000139  0.00000277  0.50000990  1
  Hg  Hg35  1  0.49999799  0.50000854  0.99999473  1
  Br  Br36  1  0.47178204  0.24933344  0.94258178  1
  Br  Br37  1  0.18204143  0.01084599  0.18371983  1
  Br  Br38  1  0.68966233  0.01009462  0.32237440  1
  Br  Br39  1  0.97114108  0.25067953  0.55798215  1
  Br  Br40  1  0.31034131  0.98991072  0.67764207  1
  Br  Br41  1  0.81796443  0.98915421  0.81629799  1
  Br  Br42  1  0.52822287  0.75067545  0.05743191  1
  Br  Br43  1  0.68197014  0.48903133  0.31623231  1
  Br  Br44  1  0.18972986  0.49006400  0.17767716  1
  Br  Br45  1  0.02885579  0.74932467  0.44203316  1
  Br  Br46  1  0.31802059  0.51097226  0.68376806  1
  Br  Br47  1  0.81026850  0.50994013  0.82232574  1
