# generated using pymatgen
data_CaH12PtC2(Br3N)2
_symmetry_space_group_name_H-M   'P 1'
_cell_length_a   8.13987804
_cell_length_b   10.74179979
_cell_length_c   8.24722921
_cell_angle_alpha   89.55260334
_cell_angle_beta   74.91516798
_cell_angle_gamma   89.07165880
_symmetry_Int_Tables_number   1
_chemical_formula_structural   CaH12PtC2(Br3N)2
_chemical_formula_sum   'Ca2 H24 Pt2 C4 Br12 N4'
_cell_volume   696.16786692
_cell_formula_units_Z   2
loop_
 _symmetry_equiv_pos_site_id
 _symmetry_equiv_pos_as_xyz
  1  'x, y, z'
loop_
 _atom_site_type_symbol
 _atom_site_label
 _atom_site_symmetry_multiplicity
 _atom_site_fract_x
 _atom_site_fract_y
 _atom_site_fract_z
 _atom_site_occupancy
  C  C0  1  0.44866264  0.24486086  0.39221755  1
  C  C1  1  0.93867152  0.24918965  0.07031088  1
  C  C2  1  0.55132252  0.75513366  0.60779463  1
  C  C3  1  0.06131676  0.75079697  0.92970670  1
  N  N4  1  0.56024103  0.24844454  0.50831443  1
  N  N5  1  0.05977746  0.25327372  0.90154486  1
  N  N6  1  0.43974947  0.75154333  0.49168869  1
  N  N7  1  0.94023938  0.74673961  0.09848948  1
  H  H8  1  0.52947736  0.24270009  0.26373618  1
  H  H9  1  0.37026638  0.16171839  0.41930227  1
  H  H10  1  0.36957765  0.32928506  0.41104623  1
  H  H11  1  0.63857287  0.17037283  0.49422389  1
  H  H12  1  0.63610999  0.32751426  0.48193784  1
  H  H13  1  0.49298543  0.25256089  0.63379314  1
  H  H14  1  0.01078251  0.25446910  0.16469219  1
  H  H15  1  0.87026098  0.16129701  0.08417323  1
  H  H16  1  0.85092205  0.32879243  0.08268231  1
  H  H17  1  0.14531631  0.17778492  0.87974430  1
  H  H18  1  0.13046911  0.33419825  0.88305521  1
  H  H19  1  0.99720023  0.25051812  0.80683455  1
  H  H20  1  0.47050027  0.75730681  0.73628005  1
  H  H21  1  0.63039906  0.67070215  0.58898206  1
  H  H22  1  0.62972124  0.83827002  0.58069523  1
  H  H23  1  0.36142222  0.82961498  0.50576955  1
  H  H24  1  0.36386684  0.67247146  0.51808914  1
  H  H25  1  0.50700381  0.74740828  0.36622193  1
  H  H26  1  0.98917605  0.74552140  0.83534624  1
  H  H27  1  0.12975246  0.83867623  0.91581419  1
  H  H28  1  0.14904514  0.67117878  0.91732947  1
  H  H29  1  0.85470907  0.82223137  0.12028897  1
  H  H30  1  0.86953692  0.66581686  0.11701974  1
  H  H31  1  0.00284120  0.74950715  0.19317993  1
  Ca  Ca32  1  0.50001803  0.99999681  -0.00000789  1
  Ca  Ca33  1  0.00000382  0.50003194  0.49999867  1
  Pt  Pt34  1  1.00003385  1.00003895  0.49999181  1
  Pt  Pt35  1  0.50000950  0.49999765  1.00000192  1
  Br  Br36  1  0.49747311  0.27749554  0.93031321  1
  Br  Br37  1  0.15207190  0.00765468  0.20035107  1
  Br  Br38  1  0.66503907  0.97949010  0.25953740  1
  Br  Br39  1  0.97690174  0.22788286  0.51607364  1
  Br  Br40  1  0.33496018  0.02050614  0.74047635  1
  Br  Br41  1  0.84796311  0.99239680  0.79962239  1
  Br  Br42  1  0.50253856  0.72250184  0.06968583  1
  Br  Br43  1  0.73592282  0.50699218  0.34161415  1
  Br  Br44  1  0.19735689  0.48947362  0.15079289  1
  Br  Br45  1  0.02309768  0.77218944  0.48394009  1
  Br  Br46  1  0.26407826  0.49301445  0.65838995  1
  Br  Br47  1  0.80265926  0.51051611  0.84921004  1
