# generated using pymatgen
data_CaH12OsC2(Br3N)2
_symmetry_space_group_name_H-M   'P 1'
_cell_length_a   7.70334770
_cell_length_b   10.89541197
_cell_length_c   7.60228232
_cell_angle_alpha   91.72163526
_cell_angle_beta   89.99909224
_cell_angle_gamma   89.99671796
_symmetry_Int_Tables_number   1
_chemical_formula_structural   CaH12OsC2(Br3N)2
_chemical_formula_sum   'Ca2 H24 Os2 C4 Br12 N4'
_cell_volume   637.78023889
_cell_formula_units_Z   2
loop_
 _symmetry_equiv_pos_site_id
 _symmetry_equiv_pos_as_xyz
  1  'x, y, z'
loop_
 _atom_site_type_symbol
 _atom_site_label
 _atom_site_symmetry_multiplicity
 _atom_site_fract_x
 _atom_site_fract_y
 _atom_site_fract_z
 _atom_site_occupancy
  C  C0  1  0.39853192  0.25013764  0.41149550  1
  C  C1  1  0.89948510  0.25003174  0.08909058  1
  C  C2  1  0.60146526  0.74986713  0.58851551  1
  C  C3  1  0.10051847  0.74997212  0.91092137  1
  N  N4  1  0.55193805  0.25072021  0.52707638  1
  N  N5  1  0.05234936  0.24927572  0.97277452  1
  N  N6  1  0.44805930  0.74928471  0.47293491  1
  N  N7  1  0.94765615  0.75072345  0.02723972  1
  H  H8  1  0.44170408  0.24841632  0.27466755  1
  H  H9  1  0.31949357  0.16993223  0.43794591  1
  H  H10  1  0.32532604  0.33414179  0.43834214  1
  H  H11  1  0.62685665  0.17298546  0.50177532  1
  H  H12  1  0.62775239  0.32678832  0.50249754  1
  H  H13  1  0.51848122  0.25384508  0.66035352  1
  H  H14  1  0.94334402  0.25184842  0.22569627  1
  H  H15  1  0.82605624  0.16604879  0.06281444  1
  H  H16  1  0.82040181  0.33026977  0.06291696  1
  H  H17  1  0.12816982  0.17315741  0.99705539  1
  H  H18  1  0.12746619  0.32696039  0.99767702  1
  H  H19  1  0.01829008  0.24612791  0.83965577  1
  H  H20  1  0.55829311  0.75158892  0.72534354  1
  H  H21  1  0.67467077  0.66586284  0.56166911  1
  H  H22  1  0.68050371  0.83007239  0.56206473  1
  H  H23  1  0.37314102  0.82701983  0.49823526  1
  H  H24  1  0.37224382  0.67321699  0.49751407  1
  H  H25  1  0.48151581  0.74615924  0.33965733  1
  H  H26  1  0.05665776  0.74815767  0.77431654  1
  H  H27  1  0.17394556  0.83395561  0.93720021  1
  H  H28  1  0.17960453  0.66973458  0.93709034  1
  H  H29  1  0.87183146  0.82684024  0.00296204  1
  H  H30  1  0.87254239  0.67303724  0.00233634  1
  H  H31  1  0.98171705  0.75387068  0.16035805  1
  Ca  Ca32  1  0.50000176  0.00000174  0.00000620  1
  Ca  Ca33  1  1.00000029  0.50000161  0.50000622  1
  Os  Os34  1  0.00000055  0.00000166  0.50000703  1
  Os  Os35  1  0.50000063  0.50000195  0.00000587  1
  Br  Br36  1  0.47887436  0.26607253  0.95022291  1
  Br  Br37  1  0.17582359  0.00726710  0.20941903  1
  Br  Br38  1  0.71507458  0.00017806  0.31991393  1
  Br  Br39  1  0.97817722  0.23389148  0.55008230  1
  Br  Br40  1  0.28492696  0.99982678  0.68009998  1
  Br  Br41  1  0.82417938  0.99273416  0.79059564  1
  Br  Br42  1  0.52112897  0.73393129  0.04978899  1
  Br  Br43  1  0.67575483  0.49272517  0.29056094  1
  Br  Br44  1  0.21502489  0.49985455  0.18003056  1
  Br  Br45  1  0.02182091  0.76611162  0.44993212  1
  Br  Br46  1  0.32424662  0.50727823  0.70945042  1
  Br  Br47  1  0.78497548  0.50014950  0.81998057  1
