# generated using pymatgen
data_BaCaH12C2(Br3N)2
_symmetry_space_group_name_H-M   'P 1'
_cell_length_a   8.37766923
_cell_length_b   11.91335884
_cell_length_c   7.95966175
_cell_angle_alpha   88.79356600
_cell_angle_beta   89.99961548
_cell_angle_gamma   89.99984327
_symmetry_Int_Tables_number   1
_chemical_formula_structural   BaCaH12C2(Br3N)2
_chemical_formula_sum   'Ba2 Ca2 H24 C4 Br12 N4'
_cell_volume   794.24732810
_cell_formula_units_Z   2
loop_
 _symmetry_equiv_pos_site_id
 _symmetry_equiv_pos_as_xyz
  1  'x, y, z'
loop_
 _atom_site_type_symbol
 _atom_site_label
 _atom_site_symmetry_multiplicity
 _atom_site_fract_x
 _atom_site_fract_y
 _atom_site_fract_z
 _atom_site_occupancy
  C  C0  1  0.39890087  0.25074904  0.42053309  1
  C  C1  1  0.89895826  0.24975671  0.07949109  1
  C  C2  1  0.60112140  0.74930258  0.57951504  1
  C  C3  1  0.10108180  0.75025057  0.92055513  1
  N  N4  1  0.54670220  0.24950737  0.52310554  1
  N  N5  1  0.04675392  0.25059013  0.97690747  1
  N  N6  1  0.45334049  0.75045441  0.47691251  1
  N  N7  1  0.95328295  0.74946265  0.02313294  1
  H  H8  1  0.43206582  0.25062297  0.28743818  1
  H  H9  1  0.33076668  0.17478826  0.45114713  1
  H  H10  1  0.32990558  0.32587478  0.44889861  1
  H  H11  1  0.61369155  0.17891826  0.49405968  1
  H  H12  1  0.61519460  0.32063919  0.49535229  1
  H  H13  1  0.52169809  0.24706151  0.65183619  1
  H  H14  1  0.93213796  0.24996382  0.21257782  1
  H  H15  1  0.82962130  0.17474468  0.05131455  1
  H  H16  1  0.83117593  0.32583939  0.04869875  1
  H  H17  1  0.11497122  0.17935216  0.00479498  1
  H  H18  1  0.11402923  0.32107892  0.00579876  1
  H  H19  1  0.02174715  0.25297695  0.84817894  1
  H  H20  1  0.56793587  0.74945271  0.71260393  1
  H  H21  1  0.67020454  0.67420617  0.55120440  1
  H  H22  1  0.66918118  0.82529199  0.54887583  1
  H  H23  1  0.38627915  0.82101679  0.50591528  1
  H  H24  1  0.38490808  0.67929199  0.50467295  1
  H  H25  1  0.47836848  0.75289291  0.34818642  1
  H  H26  1  0.06791303  0.75001888  0.78746649  1
  H  H27  1  0.17044303  0.82525563  0.94870849  1
  H  H28  1  0.16883587  0.67416282  0.95139053  1
  H  H29  1  0.88510798  0.82072383  0.99525269  1
  H  H30  1  0.88596336  0.67899843  0.99424443  1
  H  H31  1  0.97829037  0.74705957  0.15186443  1
  Ca  Ca32  1  0.49991521  0.00000736  0.00001802  1
  Ca  Ca33  1  0.99996589  0.49992874  0.49989899  1
  Ba  Ba34  1  0.99992559  0.99992637  0.50004053  1
  Ba  Ba35  1  0.50002835  0.50002246  0.99987167  1
  Br  Br36  1  0.47304883  0.23860088  0.93420113  1
  Br  Br37  1  0.19350010  0.01661448  0.15893377  1
  Br  Br38  1  0.66447136  0.02363751  0.31627424  1
  Br  Br39  1  0.97307053  0.26135224  0.56579665  1
  Br  Br40  1  0.33543150  0.97634866  0.68372265  1
  Br  Br41  1  0.80635613  0.98338336  0.84114537  1
  Br  Br42  1  0.52689965  0.76141165  0.06581558  1
  Br  Br43  1  0.69363906  0.48333974  0.34089515  1
  Br  Br44  1  0.16465326  0.47642073  0.18374551  1
  Br  Br45  1  0.02684542  0.73853386  0.43420457  1
  Br  Br46  1  0.30626247  0.51664712  0.65897615  1
  Br  Br47  1  0.83543243  0.52359705  0.81612205  1
