# generated using pymatgen
data_BH12PbC2(I3N)2
_symmetry_space_group_name_H-M   'P 1'
_cell_length_a   8.11711619
_cell_length_b   12.03951142
_cell_length_c   9.70347982
_cell_angle_alpha   87.20584875
_cell_angle_beta   92.71116029
_cell_angle_gamma   81.18276344
_symmetry_Int_Tables_number   1
_chemical_formula_structural   BH12PbC2(I3N)2
_chemical_formula_sum   'B2 H24 Pb2 C4 I12 N4'
_cell_volume   934.52046472
_cell_formula_units_Z   2
loop_
 _symmetry_equiv_pos_site_id
 _symmetry_equiv_pos_as_xyz
  1  'x, y, z'
loop_
 _atom_site_type_symbol
 _atom_site_label
 _atom_site_symmetry_multiplicity
 _atom_site_fract_x
 _atom_site_fract_y
 _atom_site_fract_z
 _atom_site_occupancy
  C  C0  1  0.42053691  0.20729131  0.44484076  1
  C  C1  1  0.97034833  0.25063911  0.08025174  1
  C  C2  1  0.44617106  0.78812183  0.45319593  1
  C  C3  1  0.15172089  0.78020804  0.74962283  1
  N  N4  1  0.53914766  0.24023999  0.55070725  1
  N  N5  1  0.06924841  0.27732324  0.96068090  1
  N  N6  1  0.37119282  0.69221220  0.40044645  1
  N  N7  1  0.04909754  0.74909785  0.28035432  1
  H  H8  1  0.42991497  0.25568938  0.34805241  1
  H  H9  1  0.45528135  0.11749854  0.42918170  1
  H  H10  1  0.29367997  0.22607150  0.48025954  1
  H  H11  1  0.65780376  0.24132583  0.51475495  1
  H  H12  1  0.49817915  0.32013775  0.58504771  1
  H  H13  1  0.55433032  0.18437697  0.63726154  1
  H  H14  1  0.03479495  0.27065743  0.17537041  1
  H  H15  1  0.95859799  0.16130879  0.08289494  1
  H  H16  1  0.84724156  0.30274534  0.06728433  1
  H  H17  1  0.19640307  0.24833068  0.98007704  1
  H  H18  1  0.05233203  0.36477214  0.93934392  1
  H  H19  1  0.02926852  0.23916123  0.87383030  1
  H  H20  1  0.38993469  0.81280584  0.54973323  1
  H  H21  1  0.58079384  0.76265371  0.47416609  1
  H  H22  1  0.42394139  0.85849195  0.37518546  1
  H  H23  1  0.24398593  0.71828705  0.35249697  1
  H  H24  1  0.36749371  0.63095430  0.47915495  1
  H  H25  1  0.44471876  0.65268960  0.32751123  1
  H  H26  1  0.13611590  0.72612041  0.66424255  1
  H  H27  1  0.25510140  0.82884015  0.74809208  1
  H  H28  1  0.03718983  0.81932681  0.79431381  1
  H  H29  1  0.98911288  0.83007128  0.25836801  1
  H  H30  1  0.97566833  0.71511632  0.35014517  1
  H  H31  1  0.03549815  0.70639001  0.19232064  1
  B  B32  1  0.44736123  0.99956644  0.99403537  1
  B  B33  1  0.91690940  0.45775479  0.41577896  1
  Pb  Pb34  1  0.05572488  0.97519954  0.57124034  1
  Pb  Pb35  1  0.26858700  0.64611209  0.93606195  1
  I  I36  1  0.51357689  0.16584404  0.06168398  1
  I  I37  1  0.22474012  0.96058768  0.10557737  1
  I  I38  1  0.75989845  0.98199378  0.38136926  1
  I  I39  1  0.95309365  0.29643482  0.55387140  1
  I  I40  1  0.38388846  0.03580997  0.75987368  1
  I  I41  1  0.86260702  0.07098661  0.79692718  1
  I  I42  1  0.64274356  0.84735137  0.01863483  1
  I  I43  1  0.68402187  0.45878377  0.27322372  1
  I  I44  1  0.15628245  0.45966303  0.30665799  1
  I  I45  1  0.87103111  0.59988883  0.55392092  1
  I  I46  1  0.42262444  0.49191509  0.72466843  1
  I  I47  1  0.93208712  0.57322981  0.94758209  1
