# generated using pymatgen
data_CaSnH12C2(Br3N)2
_symmetry_space_group_name_H-M   'P 1'
_cell_length_a   8.09171071
_cell_length_b   11.57157564
_cell_length_c   7.88100858
_cell_angle_alpha   89.56551396
_cell_angle_beta   90.00535401
_cell_angle_gamma   90.00791163
_symmetry_Int_Tables_number   1
_chemical_formula_structural   CaSnH12C2(Br3N)2
_chemical_formula_sum   'Ca2 Sn2 H24 C4 Br12 N4'
_cell_volume   737.90788906
_cell_formula_units_Z   2
loop_
 _symmetry_equiv_pos_site_id
 _symmetry_equiv_pos_as_xyz
  1  'x, y, z'
loop_
 _atom_site_type_symbol
 _atom_site_label
 _atom_site_symmetry_multiplicity
 _atom_site_fract_x
 _atom_site_fract_y
 _atom_site_fract_z
 _atom_site_occupancy
  C  C0  1  0.39517400  0.25005808  0.41327888  1
  C  C1  1  0.89613689  0.25007171  0.08762254  1
  C  C2  1  0.60482248  0.74994564  0.58673224  1
  C  C3  1  0.10386819  0.74993008  0.91239022  1
  N  N4  1  0.54393280  0.24966396  0.52271757  1
  N  N5  1  0.04432322  0.25033580  0.97740718  1
  N  N6  1  0.45606434  0.75034233  0.47729462  1
  N  N7  1  0.95568341  0.74966237  0.02260608  1
  H  H8  1  0.43444054  0.25035098  0.28051813  1
  H  H9  1  0.32302090  0.17239764  0.44046247  1
  H  H10  1  0.32318004  0.32758544  0.43978810  1
  H  H11  1  0.61505952  0.17702843  0.49723363  1
  H  H12  1  0.61538170  0.32245358  0.49705811  1
  H  H13  1  0.51405611  0.24906377  0.65158404  1
  H  H14  1  0.93613505  0.24980127  0.22016112  1
  H  H15  1  0.82385268  0.17257954  0.06159689  1
  H  H16  1  0.82398245  0.32778204  0.06081384  1
  H  H17  1  0.11576635  0.17751157  0.00277510  1
  H  H18  1  0.11567673  0.32293932  0.00248724  1
  H  H19  1  0.01381680  0.25091235  0.84868751  1
  H  H20  1  0.56555720  0.74965352  0.71949367  1
  H  H21  1  0.67681514  0.67241777  0.56022309  1
  H  H22  1  0.67697875  0.82760573  0.55954891  1
  H  H23  1  0.38493855  0.82297814  0.50277911  1
  H  H24  1  0.38461381  0.67755293  0.50295299  1
  H  H25  1  0.48594041  0.75094270  0.34842752  1
  H  H26  1  0.06386987  0.75020215  0.77985183  1
  H  H27  1  0.17615164  0.82742271  0.93841857  1
  H  H28  1  0.17602475  0.67222008  0.93919566  1
  H  H29  1  0.88423632  0.82248540  0.99724052  1
  H  H30  1  0.88433139  0.67705736  0.99752541  1
  H  H31  1  0.98618933  0.74908538  0.15132646  1
  Ca  Ca32  1  0.50000310  0.00000342  0.00000814  1
  Ca  Ca33  1  0.99999770  0.50000180  0.50000280  1
  Sn  Sn34  1  0.00000077  0.00000261  0.50000854  1
  Sn  Sn35  1  0.49999843  0.50000351  0.00000283  1
  Br  Br36  1  0.47232355  0.24693716  0.94072478  1
  Br  Br37  1  0.18693050  0.01103160  0.17577629  1
  Br  Br38  1  0.67911022  0.01363441  0.31817138  1
  Br  Br39  1  0.97174894  0.25306383  0.55975129  1
  Br  Br40  1  0.32089175  0.98637290  0.68184712  1
  Br  Br41  1  0.81307681  0.98897095  0.82424224  1
  Br  Br42  1  0.52768247  0.75307025  0.05928934  1
  Br  Br43  1  0.68693478  0.48884678  0.32417013  1
  Br  Br44  1  0.17920535  0.48647761  0.18188333  1
  Br  Br45  1  0.02824705  0.74694012  0.44026297  1
  Br  Br46  1  0.31306203  0.51115607  0.67583362  1
  Br  Br47  1  0.82078893  0.51352551  0.81812255  1
