# generated using pymatgen
data_CaCdH12C2(Br3N)2
_symmetry_space_group_name_H-M   'P 1'
_cell_length_a   7.91080297
_cell_length_b   11.32726922
_cell_length_c   7.76054254
_cell_angle_alpha   90.40644406
_cell_angle_beta   90.00887799
_cell_angle_gamma   90.00408856
_symmetry_Int_Tables_number   1
_chemical_formula_structural   CaCdH12C2(Br3N)2
_chemical_formula_sum   'Ca2 Cd2 H24 C4 Br12 N4'
_cell_volume   695.38759781
_cell_formula_units_Z   2
loop_
 _symmetry_equiv_pos_site_id
 _symmetry_equiv_pos_as_xyz
  1  'x, y, z'
loop_
 _atom_site_type_symbol
 _atom_site_label
 _atom_site_symmetry_multiplicity
 _atom_site_fract_x
 _atom_site_fract_y
 _atom_site_fract_z
 _atom_site_occupancy
  C  C0  1  0.39412495  0.24997288  0.41225395  1
  C  C1  1  0.89521154  0.25019579  0.08870915  1
  C  C2  1  0.60587141  0.75003211  0.58775895  1
  C  C3  1  0.10479449  0.74980612  0.91130395  1
  N  N4  1  0.54505142  0.25015938  0.52445894  1
  N  N5  1  0.04547754  0.24987104  0.97564115  1
  N  N6  1  0.45494611  0.74984569  0.47555312  1
  N  N7  1  0.95452910  0.75012746  0.02437296  1
  H  H8  1  0.43514228  0.25009789  0.27772385  1
  H  H9  1  0.31952228  0.17119649  0.43858063  1
  H  H10  1  0.32080285  0.32945928  0.43928004  1
  H  H11  1  0.61820178  0.17584783  0.49926505  1
  H  H12  1  0.61815957  0.32413853  0.49885386  1
  H  H13  1  0.51361153  0.25110919  0.65515445  1
  H  H14  1  0.93699639  0.25012622  0.22296277  1
  H  H15  1  0.82157878  0.17074489  0.06222312  1
  H  H16  1  0.82056459  0.32903395  0.06272024  1
  H  H17  1  0.11861080  0.17582566  0.00096441  1
  H  H18  1  0.11887895  0.32412933  0.00044930  1
  H  H19  1  0.01337416  0.24889440  0.84515348  1
  H  H20  1  0.56485551  0.74990846  0.72228834  1
  H  H21  1  0.67919236  0.67054406  0.56073322  1
  H  H22  1  0.68047626  0.82880708  0.56142995  1
  H  H23  1  0.38179518  0.82415801  0.50074848  1
  H  H24  1  0.38183631  0.67586686  0.50115944  1
  H  H25  1  0.48638460  0.74889606  0.34485912  1
  H  H26  1  0.06300798  0.74987813  0.77705024  1
  H  H27  1  0.17842628  0.82925699  0.93779272  1
  H  H28  1  0.17944224  0.67096820  0.93728792  1
  H  H29  1  0.88139319  0.82417121  0.99905278  1
  H  H30  1  0.88113039  0.67586788  0.99956419  1
  H  H31  1  0.98663381  0.75110328  0.15486103  1
  Ca  Ca32  1  0.50000221  0.00000391  0.00000790  1
  Ca  Ca33  1  0.99999602  0.50000169  0.50000004  1
  Cd  Cd34  1  0.00000097  0.00000231  0.50000916  1
  Cd  Cd35  1  0.49999845  0.50000524  0.99999872  1
  Br  Br36  1  0.47448951  0.25292934  0.94507578  1
  Br  Br37  1  0.18280993  0.01082560  0.18805433  1
  Br  Br38  1  0.69358540  0.00861631  0.32005227  1
  Br  Br39  1  0.97384154  0.24707471  0.55543811  1
  Br  Br40  1  0.30641708  0.99138906  0.67996397  1
  Br  Br41  1  0.81719513  0.98917514  0.81196349  1
  Br  Br42  1  0.52551475  0.74707758  0.05493720  1
  Br  Br43  1  0.68274048  0.48909134  0.31191517  1
  Br  Br44  1  0.19363843  0.49149398  0.17997629  1
  Br  Br45  1  0.02615583  0.75292926  0.44457686  1
  Br  Br46  1  0.31725352  0.51091225  0.68808810  1
  Br  Br47  1  0.80635985  0.50851023  0.82002838  1
