# generated using pymatgen
data_CaH12PdC2(Br3N)2
_symmetry_space_group_name_H-M   'P 1'
_cell_length_a   7.60662006
_cell_length_b   12.41641787
_cell_length_c   7.43326046
_cell_angle_alpha   87.72515680
_cell_angle_beta   89.99448417
_cell_angle_gamma   90.02203015
_symmetry_Int_Tables_number   1
_chemical_formula_structural   CaH12PdC2(Br3N)2
_chemical_formula_sum   'Ca2 H24 Pd2 C4 Br12 N4'
_cell_volume   701.49562449
_cell_formula_units_Z   2
loop_
 _symmetry_equiv_pos_site_id
 _symmetry_equiv_pos_as_xyz
  1  'x, y, z'
loop_
 _atom_site_type_symbol
 _atom_site_label
 _atom_site_symmetry_multiplicity
 _atom_site_fract_x
 _atom_site_fract_y
 _atom_site_fract_z
 _atom_site_occupancy
  C  C0  1  0.39826823  0.25170060  0.41033142  1
  C  C1  1  0.89910936  0.24839485  0.09008358  1
  C  C2  1  0.60173712  0.74830077  0.58967917  1
  C  C3  1  0.10089720  0.75160972  0.90992595  1
  N  N4  1  0.56075747  0.24714635  0.51887619  1
  N  N5  1  0.06122241  0.25278381  0.98089598  1
  N  N6  1  0.43924652  0.75285513  0.48113522  1
  N  N7  1  0.93878587  0.74722020  0.01911444  1
  H  H8  1  0.43388231  0.25456137  0.26775270  1
  H  H9  1  0.31882618  0.18022890  0.44349497  1
  H  H10  1  0.32601422  0.32433860  0.44237788  1
  H  H11  1  0.63510853  0.17973855  0.49072258  1
  H  H12  1  0.63891004  0.31408468  0.49236830  1
  H  H13  1  0.53347509  0.24319473  0.65765788  1
  H  H14  1  0.93524299  0.24556659  0.23252416  1
  H  H15  1  0.82649765  0.17578278  0.05843727  1
  H  H16  1  0.81979058  0.31990184  0.05716928  1
  H  H17  1  0.13926330  0.18583792  0.00719851  1
  H  H18  1  0.13585358  0.32018574  0.00872661  1
  H  H19  1  0.03344795  0.25672921  0.84223279  1
  H  H20  1  0.56612371  0.74544241  0.73225708  1
  H  H21  1  0.67399114  0.67566332  0.55763468  1
  H  H22  1  0.68117918  0.81977335  0.55651276  1
  H  H23  1  0.36489700  0.82026340  0.50928782  1
  H  H24  1  0.36109377  0.68591729  0.50764432  1
  H  H25  1  0.46652891  0.75680610  0.34235287  1
  H  H26  1  0.06476529  0.75443682  0.76748768  1
  H  H27  1  0.17351313  0.82421980  0.94157217  1
  H  H28  1  0.18021706  0.68010015  0.94284188  1
  H  H29  1  0.86074620  0.81416724  0.99281220  1
  H  H30  1  0.86415597  0.67981939  0.99128706  1
  H  H31  1  0.96656218  0.74327655  0.15778002  1
  Ca  Ca32  1  0.50000403  0.00000141  -0.00000406  1
  Ca  Ca33  1  0.00000540  0.50000158  0.50001700  1
  Pd  Pd34  1  -0.00004159  0.00001925  0.49995173  1
  Pd  Pd35  1  0.49996317  0.49999763  0.00007565  1
  Br  Br36  1  0.47622458  0.22078528  0.93985872  1
  Br  Br37  1  0.15570744  0.00447966  0.20338732  1
  Br  Br38  1  0.70963010  0.01463489  0.34448868  1
  Br  Br39  1  0.97549264  0.27925605  0.56039059  1
  Br  Br40  1  0.29034654  0.98536920  0.65549885  1
  Br  Br41  1  0.84429670  0.99552315  0.79659836  1
  Br  Br42  1  0.52378433  0.77921759  0.06015479  1
  Br  Br43  1  0.65570270  0.49548446  0.29660482  1
  Br  Br44  1  0.20960520  0.48533931  0.15551257  1
  Br  Br45  1  0.02451236  0.72074535  0.43961568  1
  Br  Br46  1  0.34430449  0.50451482  0.70344294  1
  Br  Br47  1  0.79037552  0.51466048  0.84452754  1
