# generated using pymatgen
data_CaH12RuC2(Br3N)2
_symmetry_space_group_name_H-M   'P 1'
_cell_length_a   7.72796174
_cell_length_b   10.91153458
_cell_length_c   7.61126584
_cell_angle_alpha   91.79618063
_cell_angle_beta   89.99888620
_cell_angle_gamma   89.99680504
_symmetry_Int_Tables_number   1
_chemical_formula_structural   CaH12RuC2(Br3N)2
_chemical_formula_sum   'Ca2 H24 Ru2 C4 Br12 N4'
_cell_volume   641.49643148
_cell_formula_units_Z   2
loop_
 _symmetry_equiv_pos_site_id
 _symmetry_equiv_pos_as_xyz
  1  'x, y, z'
loop_
 _atom_site_type_symbol
 _atom_site_label
 _atom_site_symmetry_multiplicity
 _atom_site_fract_x
 _atom_site_fract_y
 _atom_site_fract_z
 _atom_site_occupancy
  C  C0  1  0.39949469  0.25023806  0.41233992  1
  C  C1  1  0.90043986  0.24993861  0.08827480  1
  C  C2  1  0.60050292  0.74976649  0.58767121  1
  C  C3  1  0.09956494  0.75006572  0.91173709  1
  N  N4  1  0.55267505  0.25098686  0.52754625  1
  N  N5  1  0.05311006  0.24898863  0.97240005  1
  N  N6  1  0.44732183  0.74901783  0.47246611  1
  N  N7  1  0.94689613  0.75101107  0.02761435  1
  H  H8  1  0.44236463  0.24848754  0.27561810  1
  H  H9  1  0.32116849  0.16996511  0.43866375  1
  H  H10  1  0.32625967  0.33398547  0.43940823  1
  H  H11  1  0.62744126  0.17341597  0.50200815  1
  H  H12  1  0.62809836  0.32699663  0.50305821  1
  H  H13  1  0.51955502  0.25407343  0.66069999  1
  H  H14  1  0.94391154  0.25177209  0.22477915  1
  H  H15  1  0.82695882  0.16621785  0.06172093  1
  H  H16  1  0.82208198  0.33024695  0.06216897  1
  H  H17  1  0.12851966  0.17292051  0.99662206  1
  H  H18  1  0.12808129  0.32650616  0.99756395  1
  H  H19  1  0.01942676  0.24588460  0.83938727  1
  H  H20  1  0.55763412  0.75151728  0.72439252  1
  H  H21  1  0.67373606  0.66601783  0.56060199  1
  H  H22  1  0.67883027  0.83003793  0.56134557  1
  H  H23  1  0.37255617  0.82659070  0.49800463  1
  H  H24  1  0.37189723  0.67300967  0.49695491  1
  H  H25  1  0.48044048  0.74593153  0.33931199  1
  H  H26  1  0.05609016  0.74823410  0.77523378  1
  H  H27  1  0.17304321  0.83378667  0.93829300  1
  H  H28  1  0.17792505  0.66975787  0.93783786  1
  H  H29  1  0.87148223  0.82707762  0.00339531  1
  H  H30  1  0.87192814  0.67349202  0.00244985  1
  H  H31  1  0.98058084  0.75411459  0.16062708  1
  Ca  Ca32  1  0.50000130  0.00000153  0.00000607  1
  Ca  Ca33  1  0.00000019  0.50000123  0.50000587  1
  Ru  Ru34  1  0.00000005  0.00000163  0.50000667  1
  Ru  Ru35  1  0.50000041  0.50000163  0.00000587  1
  Br  Br36  1  0.47905380  0.26527657  0.95090158  1
  Br  Br37  1  0.17751470  0.00736822  0.20888143  1
  Br  Br38  1  0.71485533  1.00016252  0.31859093  1
  Br  Br39  1  0.97837478  0.23469629  0.54943229  1
  Br  Br40  1  0.28514495  -0.00015816  0.68142240  1
  Br  Br41  1  0.82248681  0.99263365  0.79113235  1
  Br  Br42  1  0.52094917  0.73472680  0.04911000  1
  Br  Br43  1  0.67744113  0.49261773  0.29110047  1
  Br  Br44  1  0.21481297  0.49986415  0.18134234  1
  Br  Br45  1  0.02162380  0.76530681  0.45058128  1
  Br  Br46  1  0.32256021  0.50738494  0.70891074  1
  Br  Br47  1  0.78518718  0.50013938  0.81866926  1
