# generated using pymatgen
data_SrCaH12C2(Br3N)2
_symmetry_space_group_name_H-M   'P 1'
_cell_length_a   8.14461128
_cell_length_b   11.64776735
_cell_length_c   7.89734821
_cell_angle_alpha   89.43486292
_cell_angle_beta   90.00718352
_cell_angle_gamma   90.00359090
_symmetry_Int_Tables_number   1
_chemical_formula_structural   SrCaH12C2(Br3N)2
_chemical_formula_sum   'Sr2 Ca2 H24 C4 Br12 N4'
_cell_volume   749.15762774
_cell_formula_units_Z   2
loop_
 _symmetry_equiv_pos_site_id
 _symmetry_equiv_pos_as_xyz
  1  'x, y, z'
loop_
 _atom_site_type_symbol
 _atom_site_label
 _atom_site_symmetry_multiplicity
 _atom_site_fract_x
 _atom_site_fract_y
 _atom_site_fract_z
 _atom_site_occupancy
  C  C0  1  0.39397027  0.25030566  0.41293585  1
  C  C1  1  0.89505621  0.24987840  0.08813958  1
  C  C2  1  0.60602759  0.74969800  0.58707640  1
  C  C3  1  0.10495005  0.75012250  0.91187310  1
  N  N4  1  0.54140195  0.24981256  0.52273486  1
  N  N5  1  0.04184346  0.25021702  0.97748019  1
  N  N6  1  0.45859433  0.75019199  0.47727975  1
  N  N7  1  0.95816368  0.74978094  0.02253445  1
  H  H8  1  0.43334063  0.25032378  0.28044866  1
  H  H9  1  0.32255441  0.17286183  0.43973341  1
  H  H10  1  0.32185088  0.32718302  0.43891793  1
  H  H11  1  0.61181474  0.17755505  0.49718009  1
  H  H12  1  0.61248616  0.32221873  0.49723269  1
  H  H13  1  0.51126364  0.24888002  0.65128907  1
  H  H14  1  0.93529383  0.24989485  0.22039124  1
  H  H15  1  0.82265180  0.17304045  0.06274548  1
  H  H16  1  0.82363486  0.32737850  0.06179397  1
  H  H17  1  0.11294029  0.17776409  0.00263918  1
  H  H18  1  0.11249949  0.32243465  0.00255785  1
  H  H19  1  0.01099978  0.25112254  0.84908650  1
  H  H20  1  0.56665770  0.74968237  0.71956477  1
  H  H21  1  0.67814367  0.67282056  0.56109594  1
  H  H22  1  0.67744390  0.82714092  0.56027753  1
  H  H23  1  0.38818207  0.82244983  0.50283472  1
  H  H24  1  0.38750993  0.67778585  0.50278115  1
  H  H25  1  0.48873216  0.75112509  0.34872512  1
  H  H26  1  0.06471088  0.75010881  0.77962240  1
  H  H27  1  0.17735444  0.82696019  0.93727127  1
  H  H28  1  0.17637117  0.67262224  0.93821477  1
  H  H29  1  0.88706414  0.82223222  0.99737794  1
  H  H30  1  0.88751008  0.67756191  0.99745612  1
  H  H31  1  0.98900841  0.74887482  0.15092845  1
  Ca  Ca32  1  0.50000347  0.00000569  0.00000829  1
  Ca  Ca33  1  0.99999457  0.50000138  0.49999779  1
  Sr  Sr34  1  0.00000175  0.00000221  0.50000882  1
  Sr  Sr35  1  0.49999756  0.50000734  0.99999656  1
  Br  Br36  1  0.47118364  0.24474361  0.93898935  1
  Br  Br37  1  0.18772957  0.01307952  0.17016068  1
  Br  Br38  1  0.67385853  0.01627635  0.31884092  1
  Br  Br39  1  0.97065420  0.25526509  0.56154777  1
  Br  Br40  1  0.32614629  0.98373108  0.68117689  1
  Br  Br41  1  0.81227788  0.98692167  0.82985755  1
  Br  Br42  1  0.52882058  0.75526750  0.06102581  1
  Br  Br43  1  0.68771259  0.48675840  0.32978724  1
  Br  Br44  1  0.17396972  0.48388008  0.18121725  1
  Br  Br45  1  0.02934116  0.74473916  0.43846733  1
  Br  Br46  1  0.31227768  0.51324470  0.67021023  1
  Br  Br47  1  0.82602795  0.51612513  0.81878369  1
