# generated using pymatgen
data_CaGeH12C2(Br3N)2
_symmetry_space_group_name_H-M   'P 1'
_cell_length_a   7.97036321
_cell_length_b   11.33920350
_cell_length_c   7.78454370
_cell_angle_alpha   90.40128430
_cell_angle_beta   90.00183109
_cell_angle_gamma   90.00348307
_symmetry_Int_Tables_number   1
_chemical_formula_structural   CaGeH12C2(Br3N)2
_chemical_formula_sum   'Ca2 Ge2 H24 C4 Br12 N4'
_cell_volume   703.53089017
_cell_formula_units_Z   2
loop_
 _symmetry_equiv_pos_site_id
 _symmetry_equiv_pos_as_xyz
  1  'x, y, z'
loop_
 _atom_site_type_symbol
 _atom_site_label
 _atom_site_symmetry_multiplicity
 _atom_site_fract_x
 _atom_site_fract_y
 _atom_site_fract_z
 _atom_site_occupancy
  C  C0  1  0.39872494  0.25000674  0.41422306  1
  C  C1  1  0.89958392  0.25011648  0.08643794  1
  C  C2  1  0.60127178  0.74999730  0.58578736  1
  C  C3  1  0.10041983  0.74988584  0.91357357  1
  N  N4  1  0.54968042  0.25014252  0.52479621  1
  N  N5  1  0.05005441  0.24985046  0.97519290  1
  N  N6  1  0.45031571  0.74986318  0.47521617  1
  N  N7  1  0.94995206  0.75014792  0.02482231  1
  H  H8  1  0.43844211  0.24997240  0.27980610  1
  H  H9  1  0.32494546  0.17130336  0.44119882  1
  H  H10  1  0.32623236  0.32952985  0.44174813  1
  H  H11  1  0.62202552  0.17587272  0.49893960  1
  H  H12  1  0.62216485  0.32400659  0.49881433  1
  H  H13  1  0.51946433  0.25096810  0.65527775  1
  H  H14  1  0.93992899  0.25018832  0.22066737  1
  H  H15  1  0.82685234  0.17062315  0.05936951  1
  H  H16  1  0.82578988  0.32886096  0.05976525  1
  H  H17  1  0.12252695  0.17594442  0.00090556  1
  H  H18  1  0.12259715  0.32407633  0.00070117  1
  H  H19  1  0.01928879  0.24901289  0.84483465  1
  H  H20  1  0.56155532  0.75003304  0.72020522  1
  H  H21  1  0.67376219  0.67047372  0.55826302  1
  H  H22  1  0.67505318  0.82870022  0.55881089  1
  H  H23  1  0.37797174  0.82413343  0.50107288  1
  H  H24  1  0.37783048  0.67599976  0.50119724  1
  H  H25  1  0.48053127  0.74903779  0.34473340  1
  H  H26  1  0.06007372  0.74981608  0.77934585  1
  H  H27  1  0.17315110  0.82938026  0.94064469  1
  H  H28  1  0.17421664  0.67114221  0.94024304  1
  H  H29  1  0.87747528  0.82405366  0.99911155  1
  H  H30  1  0.87741117  0.67592162  0.99931266  1
  H  H31  1  0.98071856  0.75098557  0.15517882  1
  Ca  Ca32  1  0.50000184  0.00000245  0.00000693  1
  Ca  Ca33  1  0.99999973  0.50000180  0.50000404  1
  Ge  Ge34  1  0.99999965  0.00000259  0.50000836  1
  Ge  Ge35  1  0.50000096  0.50000247  0.00000420  1
  Br  Br36  1  0.47722225  0.25329329  0.94568777  1
  Br  Br37  1  0.18556953  0.01079413  0.18932013  1
  Br  Br38  1  0.69423551  0.00897366  0.31694208  1
  Br  Br39  1  0.97665116  0.24670896  0.55466255  1
  Br  Br40  1  0.30576635  0.99103233  0.68307374  1
  Br  Br41  1  0.81443563  0.98920707  0.81069503  1
  Br  Br42  1  0.52278277  0.74671195  0.05432529  1
  Br  Br43  1  0.68555637  0.48914811  0.31064130  1
  Br  Br44  1  0.19427296  0.49107993  0.18305924  1
  Br  Br45  1  0.02334720  0.75329445  0.44535247  1
  Br  Br46  1  0.31444323  0.51085449  0.68936702  1
  Br  Br47  1  0.80572613  0.50892374  0.81694943  1
