# generated using pymatgen
data_CaZnH12C2(Br3N)2
_symmetry_space_group_name_H-M   'P 1'
_cell_length_a   7.89978348
_cell_length_b   11.04958228
_cell_length_c   7.65730074
_cell_angle_alpha   91.14503988
_cell_angle_beta   89.98836020
_cell_angle_gamma   90.00041380
_symmetry_Int_Tables_number   1
_chemical_formula_structural   CaZnH12C2(Br3N)2
_chemical_formula_sum   'Ca2 Zn2 H24 C4 Br12 N4'
_cell_volume   668.26699464
_cell_formula_units_Z   2
loop_
 _symmetry_equiv_pos_site_id
 _symmetry_equiv_pos_as_xyz
  1  'x, y, z'
loop_
 _atom_site_type_symbol
 _atom_site_label
 _atom_site_symmetry_multiplicity
 _atom_site_fract_x
 _atom_site_fract_y
 _atom_site_fract_z
 _atom_site_occupancy
  C  C0  1  0.41519661  0.25004200  0.42261806  1
  C  C1  1  0.91562367  0.25001156  0.07753833  1
  C  C2  1  0.58480550  0.74996315  0.57739700  1
  C  C3  1  0.08438586  0.74999378  0.92247190  1
  N  N4  1  0.56914314  0.25186975  0.53191198  1
  N  N5  1  0.06931430  0.24807708  0.96773086  1
  N  N6  1  0.43083468  0.74813367  0.46808644  1
  N  N7  1  0.93069789  0.75192259  0.03228472  1
  H  H8  1  0.45314962  0.24899873  0.28539459  1
  H  H9  1  0.34148953  0.16956943  0.45195396  1
  H  H10  1  0.34246926  0.33183765  0.45159309  1
  H  H11  1  0.64263247  0.17582007  0.50537360  1
  H  H12  1  0.64128402  0.32730830  0.50352170  1
  H  H13  1  0.54092577  0.25477253  0.66521215  1
  H  H14  1  0.95391395  0.25113167  0.21460660  1
  H  H15  1  0.84279283  0.16822343  0.04886786  1
  H  H16  1  0.84189879  0.33049134  0.04828887  1
  H  H17  1  0.14144988  0.17259881  0.99597453  1
  H  H18  1  0.14295078  0.32408934  0.99407054  1
  H  H19  1  0.04079770  0.24516740  0.83457118  1
  H  H20  1  0.54683795  0.75100900  0.71460903  1
  H  H21  1  0.65751588  0.66816877  0.54841799  1
  H  H22  1  0.65849732  0.83043258  0.54805045  1
  H  H23  1  0.35736021  0.82418342  0.49463088  1
  H  H24  1  0.35870822  0.67269732  0.49648716  1
  H  H25  1  0.45906651  0.74522987  0.33479710  1
  H  H26  1  0.04609288  0.74887518  0.78540596  1
  H  H27  1  0.15721360  0.83178336  0.95114480  1
  H  H28  1  0.15811540  0.66951526  0.95171748  1
  H  H29  1  0.85855701  0.82739910  0.00404317  1
  H  H30  1  0.85706445  0.67590834  0.00594319  1
  H  H31  1  0.95921595  0.75483203  0.16544290  1
  Ca  Ca32  1  0.50000151  0.00000141  0.00001051  1
  Ca  Ca33  1  0.00000219  0.50000088  0.50000983  1
  Zn  Zn34  1  0.00000027  0.00000033  0.50001563  1
  Zn  Zn35  1  0.50000322  0.50000084  0.00001265  1
  Br  Br36  1  0.49053118  0.25987787  0.95471960  1
  Br  Br37  1  0.18975370  0.00934152  0.20856141  1
  Br  Br38  1  0.71691674  0.00605229  0.31063373  1
  Br  Br39  1  0.99018472  0.24011579  0.54526498  1
  Br  Br40  1  0.28308854  0.99395244  0.68938153  1
  Br  Br41  1  0.81024906  0.99065686  0.79145633  1
  Br  Br42  1  0.50947854  0.74012550  0.04529287  1
  Br  Br43  1  0.68983407  0.49066335  0.29145359  1
  Br  Br44  1  0.21693635  0.49387724  0.18928674  1
  Br  Br45  1  0.00980716  0.75988612  0.45475312  1
  Br  Br46  1  0.31017031  0.50933948  0.70856069  1
  Br  Br47  1  0.78306456  0.50612985  0.81072529  1
