# generated using pymatgen
data_ScTlH12C2(Br3N)2
_symmetry_space_group_name_H-M   'P 1'
_cell_length_a   8.10467346
_cell_length_b   11.59289391
_cell_length_c   7.85869116
_cell_angle_alpha   86.09634603
_cell_angle_beta   89.99960507
_cell_angle_gamma   90.03272413
_symmetry_Int_Tables_number   1
_chemical_formula_structural   ScTlH12C2(Br3N)2
_chemical_formula_sum   'Sc2 Tl2 H24 C4 Br12 N4'
_cell_volume   736.66285743
_cell_formula_units_Z   2
loop_
 _symmetry_equiv_pos_site_id
 _symmetry_equiv_pos_as_xyz
  1  'x, y, z'
loop_
 _atom_site_type_symbol
 _atom_site_label
 _atom_site_symmetry_multiplicity
 _atom_site_fract_x
 _atom_site_fract_y
 _atom_site_fract_z
 _atom_site_occupancy
  C  C0  1  0.39578333  0.24993526  0.41229245  1
  C  C1  1  0.89672818  0.25013421  0.08864683  1
  C  C2  1  0.60421407  0.75006983  0.58772106  1
  C  C3  1  0.10327639  0.74986741  0.91136497  1
  N  N4  1  0.54481013  0.24769243  0.52205077  1
  N  N5  1  0.04519218  0.25226905  0.97808590  1
  N  N6  1  0.45518702  0.75231234  0.47796347  1
  N  N7  1  0.95481214  0.74772796  0.02192519  1
  H  H8  1  0.43467896  0.25232749  0.27875667  1
  H  H9  1  0.32457050  0.17120499  0.44327686  1
  H  H10  1  0.32309082  0.32639019  0.43626988  1
  H  H11  1  0.61591460  0.17616783  0.49893398  1
  H  H12  1  0.61592272  0.32163923  0.49506830  1
  H  H13  1  0.51497304  0.24293155  0.65175819  1
  H  H14  1  0.93633309  0.24774870  0.22196018  1
  H  H15  1  0.82365315  0.17369999  0.06511854  1
  H  H16  1  0.82560988  0.32890347  0.05809456  1
  H  H17  1  0.11624529  0.17832751  0.00476532  1
  H  H18  1  0.11659162  0.32380230  0.00074342  1
  H  H19  1  0.01473815  0.25700032  0.84853881  1
  H  H20  1  0.56531938  0.74767959  0.72125677  1
  H  H21  1  0.67690491  0.67361388  0.56374486  1
  H  H22  1  0.67542780  0.82879907  0.55673436  1
  H  H23  1  0.38408272  0.82383723  0.50108123  1
  H  H24  1  0.38407392  0.67836564  0.50494594  1
  H  H25  1  0.48502331  0.75707388  0.34825544  1
  H  H26  1  0.06367253  0.75225569  0.77805069  1
  H  H27  1  0.17635005  0.82630155  0.93489765  1
  H  H28  1  0.17439691  0.67109842  0.94191402  1
  H  H29  1  0.88375745  0.82166866  0.99524800  1
  H  H30  1  0.88341460  0.67619386  0.99926701  1
  H  H31  1  0.98526656  0.74299679  0.15147156  1
  Sc  Sc32  1  0.50000336  0.00000366  0.00000892  1
  Sc  Sc33  1  0.99999714  0.50000203  0.50000201  1
  Tl  Tl34  1  0.00000193  0.00000234  0.50000909  1
  Tl  Tl35  1  0.49999898  0.50000558  0.99999891  1
  Br  Br36  1  0.47568253  0.22767843  0.93988312  1
  Br  Br37  1  0.20896248  0.00300035  0.15220279  1
  Br  Br38  1  0.64762935  0.01933356  0.29717481  1
  Br  Br39  1  0.97517199  0.27234381  0.56052245  1
  Br  Br40  1  0.35237606  0.98067370  0.70284340  1
  Br  Br41  1  0.79104460  0.99700167  0.84781650  1
  Br  Br42  1  0.52432442  0.77232939  0.06013374  1
  Br  Br43  1  0.70910132  0.49682774  0.34752071  1
  Br  Br44  1  0.14787997  0.48075151  0.20297948  1
  Br  Br45  1  0.02482294  0.72766096  0.43948804  1
  Br  Br46  1  0.29089427  0.50317560  0.65248291  1
  Br  Br47  1  0.85211700  0.51925163  0.79702684  1
