# generated using pymatgen
data_ScH12AuC2(Br3N)2
_symmetry_space_group_name_H-M   'P 1'
_cell_length_a   7.86028254
_cell_length_b   11.98313196
_cell_length_c   7.65532004
_cell_angle_alpha   84.90747162
_cell_angle_beta   102.09118598
_cell_angle_gamma   90.42987606
_symmetry_Int_Tables_number   1
_chemical_formula_structural   ScH12AuC2(Br3N)2
_chemical_formula_sum   'Sc2 H24 Au2 C4 Br12 N4'
_cell_volume   702.23567860
_cell_formula_units_Z   2
loop_
 _symmetry_equiv_pos_site_id
 _symmetry_equiv_pos_as_xyz
  1  'x, y, z'
loop_
 _atom_site_type_symbol
 _atom_site_label
 _atom_site_symmetry_multiplicity
 _atom_site_fract_x
 _atom_site_fract_y
 _atom_site_fract_z
 _atom_site_occupancy
  C  C0  1  0.41090824  0.25007794  0.41525295  1
  C  C1  1  0.92123095  0.25025329  0.07643737  1
  C  C2  1  0.58908679  0.74992526  0.58476269  1
  C  C3  1  0.07877633  0.74975079  0.92357411  1
  N  N4  1  0.58439365  0.24093799  0.53771665  1
  N  N5  1  0.07737477  0.26202276  0.99660400  1
  N  N6  1  0.41560266  0.75906242  0.46229709  1
  N  N7  1  0.92262947  0.73798375  0.00340229  1
  H  H8  1  0.42968779  0.25811615  0.27691109  1
  H  H9  1  0.33757371  0.17444247  0.43999312  1
  H  H10  1  0.34362327  0.32400040  0.44231091  1
  H  H11  1  0.65175378  0.17126391  0.51514454  1
  H  H12  1  0.65894063  0.31047005  0.51621191  1
  H  H13  1  0.57187307  0.23350028  0.67156805  1
  H  H14  1  0.96276993  0.24043453  0.22249322  1
  H  H15  1  0.85053830  0.17619083  0.02900316  1
  H  H16  1  0.83982855  0.32549481  0.03527371  1
  H  H17  1  0.15684645  0.19097843  0.03298837  1
  H  H18  1  0.14743216  0.33175846  0.03851591  1
  H  H19  1  0.04581095  0.27149736  0.85616334  1
  H  H20  1  0.57031080  0.74189132  0.72310301  1
  H  H21  1  0.65637166  0.67600061  0.55770749  1
  H  H22  1  0.66242259  0.82555973  0.56001396  1
  H  H23  1  0.34823923  0.82873728  0.48487051  1
  H  H24  1  0.34105608  0.68952969  0.48380887  1
  H  H25  1  0.42811936  0.76649869  0.32844930  1
  H  H26  1  0.03724044  0.75956636  0.77751755  1
  H  H27  1  0.14946843  0.82381334  0.97100572  1
  H  H28  1  0.16017772  0.67450869  0.96474304  1
  H  H29  1  0.84316000  0.80902869  0.96701567  1
  H  H30  1  0.85257174  0.66824829  0.96149042  1
  H  H31  1  0.95419000  0.72850967  0.14384410  1
  Sc  Sc32  1  0.50000229  0.00000103  0.00000974  1
  Sc  Sc33  1  0.99999786  0.50000154  0.50000298  1
  Au  Au34  1  0.00000324  0.00000142  0.50000876  1
  Au  Au35  1  0.50000060  0.50000159  0.00000294  1
  Br  Br36  1  0.47517109  0.21705828  0.93388048  1
  Br  Br37  1  0.23358022  0.00340890  0.15046023  1
  Br  Br38  1  0.69549050  0.02318673  0.33957892  1
  Br  Br39  1  0.00959266  0.28109574  0.55659263  1
  Br  Br40  1  0.30451618  0.97681780  0.66043747  1
  Br  Br41  1  0.76642171  0.99659479  0.84955383  1
  Br  Br42  1  0.52483486  0.78294423  0.06614021  1
  Br  Br43  1  0.65608648  0.49270125  0.31424827  1
  Br  Br44  1  0.14260394  0.49573874  0.22650341  1
  Br  Br45  1  0.99040162  0.71890711  0.44341689  1
  Br  Br46  1  0.34391284  0.50729963  0.68575880  1
  Br  Br47  1  0.85739813  0.50426527  0.77350692  1
