# generated using pymatgen
data_ScInH12C2(Br3N)2
_symmetry_space_group_name_H-M   'P 1'
_cell_length_a   8.08480296
_cell_length_b   11.54888869
_cell_length_c   7.84677997
_cell_angle_alpha   86.28172145
_cell_angle_beta   89.99898003
_cell_angle_gamma   90.03224745
_symmetry_Int_Tables_number   1
_chemical_formula_structural   ScInH12C2(Br3N)2
_chemical_formula_sum   'Sc2 In2 H24 C4 Br12 N4'
_cell_volume   731.11531129
_cell_formula_units_Z   2
loop_
 _symmetry_equiv_pos_site_id
 _symmetry_equiv_pos_as_xyz
  1  'x, y, z'
loop_
 _atom_site_type_symbol
 _atom_site_label
 _atom_site_symmetry_multiplicity
 _atom_site_fract_x
 _atom_site_fract_y
 _atom_site_fract_z
 _atom_site_occupancy
  C  C0  1  0.39650560  0.24967419  0.41273440  1
  C  C1  1  0.89742280  0.25038288  0.08815179  1
  C  C2  1  0.60349075  0.75033024  0.58727877  1
  C  C3  1  0.10258340  0.74961894  0.91185958  1
  N  N4  1  0.54595279  0.24753576  0.52244698  1
  N  N5  1  0.04632149  0.25244269  0.97764715  1
  N  N6  1  0.45404284  0.75246989  0.47756725  1
  N  N7  1  0.95368491  0.74755564  0.02236475  1
  H  H8  1  0.43543356  0.25214042  0.27900549  1
  H  H9  1  0.32505397  0.17071861  0.44345873  1
  H  H10  1  0.32375355  0.32641648  0.43710911  1
  H  H11  1  0.61732617  0.17576415  0.49914529  1
  H  H12  1  0.61720360  0.32166856  0.49550045  1
  H  H13  1  0.51613183  0.24298536  0.65233016  1
  H  H14  1  0.93704371  0.24791317  0.22166051  1
  H  H15  1  0.82431100  0.17366095  0.06420449  1
  H  H16  1  0.82605487  0.32937496  0.05785685  1
  H  H17  1  0.11750488  0.17830530  0.00430361  1
  H  H18  1  0.11799414  0.32421131  0.00051286  1
  H  H19  1  0.01590238  0.25695643  0.84791822  1
  H  H20  1  0.56456385  0.74786541  0.72100803  1
  H  H21  1  0.67624079  0.67358704  0.56290444  1
  H  H22  1  0.67494415  0.82928490  0.55655311  1
  H  H23  1  0.38267041  0.82424165  0.50086913  1
  H  H24  1  0.38279158  0.67833712  0.50451368  1
  H  H25  1  0.48386367  0.75702007  0.34768383  1
  H  H26  1  0.06296214  0.75209050  0.77835084  1
  H  H27  1  0.17569436  0.82634057  0.93580978  1
  H  H28  1  0.17395226  0.67062670  0.94215138  1
  H  H29  1  0.88249917  0.82169236  0.99571036  1
  H  H30  1  0.88201462  0.67578639  0.99949776  1
  H  H31  1  0.98410414  0.74304144  0.15209374  1
  Sc  Sc32  1  0.50000287  0.00000302  0.00000837  1
  Sc  Sc33  1  0.99999723  0.50000175  0.50000225  1
  In  In34  1  0.00000079  0.00000236  0.50000858  1
  In  In35  1  0.49999961  0.50000452  0.99999942  1
  Br  Br36  1  0.47596144  0.22891327  0.94130443  1
  Br  Br37  1  0.20944219  0.00270150  0.15645737  1
  Br  Br38  1  0.65164577  0.01830923  0.29667342  1
  Br  Br39  1  0.97543349  0.27110859  0.55906791  1
  Br  Br40  1  0.34835845  0.98169788  0.70334432  1
  Br  Br41  1  0.79056391  0.99730076  0.84356016  1
  Br  Br42  1  0.52404489  0.77109319  0.05871229  1
  Br  Br43  1  0.70958833  0.49715023  0.34325745  1
  Br  Br44  1  0.15191024  0.48176334  0.20348627  1
  Br  Br45  1  0.02456140  0.72889513  0.44094382  1
  Br  Br46  1  0.29040717  0.50285332  0.65674715  1
  Br  Br47  1  0.84808662  0.51824008  0.79652090  1
