# generated using pymatgen
data_H6CI3N2
_symmetry_space_group_name_H-M   'P 1'
_cell_length_a   9.01674917
_cell_length_b   10.78433344
_cell_length_c   8.25490152
_cell_angle_alpha   109.49323664
_cell_angle_beta   90.32588676
_cell_angle_gamma   89.67413342
_symmetry_Int_Tables_number   1
_chemical_formula_structural   H6CI3N2
_chemical_formula_sum   'H24 C4 I12 N8'
_cell_volume   756.67495606
_cell_formula_units_Z   4
loop_
 _symmetry_equiv_pos_site_id
 _symmetry_equiv_pos_as_xyz
  1  'x, y, z'
loop_
 _atom_site_type_symbol
 _atom_site_label
 _atom_site_symmetry_multiplicity
 _atom_site_fract_x
 _atom_site_fract_y
 _atom_site_fract_z
 _atom_site_occupancy
  C  C0  1  0.52622141  0.32125337  0.39777868  1
  C  C1  1  0.96002695  0.20310676  0.12586748  1
  C  C2  1  0.53937318  0.70066237  0.62258719  1
  C  C3  1  0.97276659  0.82209054  0.89526587  1
  N  N4  1  0.47865091  0.25688235  0.52205560  1
  N  N5  1  0.96716768  0.21620281  0.95309903  1
  N  N6  1  0.53270622  0.71557188  0.45076873  1
  N  N7  1  0.02074639  0.75881877  0.02138145  1
  H  H8  1  0.55999528  0.24493955  0.27880029  1
  H  H9  1  0.43269403  0.37733100  0.37194244  1
  H  H10  1  0.62018948  0.38599246  0.45193770  1
  H  H11  1  0.39421527  0.18969397  0.46961729  1
  H  H12  1  0.56359146  0.20397096  0.55587011  1
  H  H13  1  0.43850174  0.32320349  0.63588999  1
  H  H14  1  0.07208923  0.21315063  0.17974785  1
  H  H15  1  0.91297235  0.10741967  0.11534235  1
  H  H16  1  0.89048780  0.28203807  0.20951499  1
  H  H17  1  0.01555334  0.13400095  0.85707605  1
  H  H18  1  0.02526634  0.30001264  0.95742973  1
  H  H19  1  0.86137666  0.22304494  0.90590503  1
  H  H20  1  0.42632100  0.70415882  0.67104079  1
  H  H21  1  0.59324346  0.60719817  0.61235109  1
  H  H22  1  0.60241683  0.78239356  0.71060689  1
  H  H23  1  0.47143889  0.79833984  0.45515223  1
  H  H24  1  0.48747934  0.63272550  0.35239378  1
  H  H25  1  0.63828730  0.72561400  0.40697754  1
  H  H26  1  0.93976867  0.74515177  0.77641045  1
  H  H27  1  0.87818848  0.88706013  0.94735463  1
  H  H28  1  0.06585267  0.87775470  0.86986377  1
  H  H29  1  0.93624131  0.70624908  0.05462115  1
  H  H30  1  0.10589381  0.69155203  0.97083859  1
  H  H31  1  0.06012865  0.82569599  0.13538643  1
  N  N32  1  0.49012694  0.91729271  0.04774334  1
  N  N33  1  0.00831693  0.41750745  0.54980377  1
  N  N34  1  0.07900828  0.01956999  0.63868903  1
  N  N35  1  0.42352309  0.51940839  0.13703684  1
  I  I36  1  0.51624598  0.33671112  0.97284340  1
  I  I37  1  0.29852531  0.02045052  0.17465514  1
  I  I38  1  0.66813786  0.96615418  0.22750742  1
  I  I39  1  0.05194049  0.19453350  0.54721257  1
  I  I40  1  0.31264132  0.00378409  0.67768781  1
  I  I41  1  0.66401631  0.05771033  0.74345838  1
  I  I42  1  0.44840906  0.69398772  0.04434871  1
  I  I43  1  0.83919291  0.55999950  0.24403946  1
  I  I44  1  0.19020526  0.50434869  0.17618193  1
  I  I45  1  0.98706830  0.83769849  0.47216222  1
  I  I46  1  0.20043348  0.52019488  0.67551933  1
  I  I47  1  0.83237948  0.46744594  0.73053206  1
