# generated using pymatgen
data_TlBH12C2(I3N)2
_symmetry_space_group_name_H-M   'P 1'
_cell_length_a   9.29277453
_cell_length_b   10.22491506
_cell_length_c   9.30288778
_cell_angle_alpha   89.83714747
_cell_angle_beta   89.08618569
_cell_angle_gamma   90.11128216
_symmetry_Int_Tables_number   1
_chemical_formula_structural   TlBH12C2(I3N)2
_chemical_formula_sum   'Tl2 B2 H24 C4 I12 N4'
_cell_volume   883.82247173
_cell_formula_units_Z   2
loop_
 _symmetry_equiv_pos_site_id
 _symmetry_equiv_pos_as_xyz
  1  'x, y, z'
loop_
 _atom_site_type_symbol
 _atom_site_label
 _atom_site_symmetry_multiplicity
 _atom_site_fract_x
 _atom_site_fract_y
 _atom_site_fract_z
 _atom_site_occupancy
  C  C0  1  0.49169417  0.20595122  0.45521833  1
  C  C1  1  0.96825969  0.25268309  0.04354016  1
  C  C2  1  0.54055357  0.77623541  0.56965745  1
  C  C3  1  0.05903473  0.76326502  0.94863147  1
  N  N4  1  0.58305922  0.24793027  0.57671803  1
  N  N5  1  0.02906178  0.27444078  0.89632228  1
  N  N6  1  0.43077785  0.73748037  0.46165237  1
  N  N7  1  0.91913693  0.74413648  0.02477829  1
  H  H8  1  0.49092661  0.28389494  0.37414188  1
  H  H9  1  0.53750632  0.11726154  0.40720072  1
  H  H10  1  0.38205125  0.18885278  0.49608032  1
  H  H11  1  0.68371710  0.28093707  0.54117770  1
  H  H12  1  0.53313678  0.32321668  0.63461042  1
  H  H13  1  0.60472936  0.17158390  0.64749636  1
  H  H14  1  0.05445952  0.26056454  0.12168389  1
  H  H15  1  0.92032851  0.15470870  0.04791090  1
  H  H16  1  0.88559922  0.32689208  0.06384672  1
  H  H17  1  0.10634340  0.20448827  0.86923665  1
  H  H18  1  0.07676587  0.36530034  0.88236911  1
  H  H19  1  0.94858001  0.26736893  0.82051586  1
  H  H20  1  0.48628788  0.78941913  0.67389683  1
  H  H21  1  0.61983764  0.69739695  0.57711944  1
  H  H22  1  0.59405706  0.86623463  0.53350893  1
  H  H23  1  0.35342325  0.80878362  0.44809135  1
  H  H24  1  0.37837744  0.65181309  0.49594479  1
  H  H25  1  0.47855806  0.72172188  0.36193134  1
  H  H26  1  0.08914090  0.67249845  0.89346232  1
  H  H27  1  0.14057224  0.78944297  0.02722728  1
  H  H28  1  0.04689472  0.84260178  0.87050849  1
  H  H29  1  0.88167374  0.82908603  0.07646768  1
  H  H30  1  0.84054839  0.70919627  0.95597431  1
  H  H31  1  0.92867691  0.67426589  0.10505709  1
  B  B32  1  0.40930414  0.01150869  0.00570293  1
  B  B33  1  0.94984035  0.51191797  0.40327470  1
  Tl  Tl34  1  0.04589716  0.97496292  0.49677656  1
  Tl  Tl35  1  0.43512895  0.48066723  0.00705664  1
  I  I36  1  0.56431962  0.17741147  0.02000979  1
  I  I37  1  0.25072828  0.02301038  0.19097672  1
  I  I38  1  0.79307365  0.96574017  0.28611745  1
  I  I39  1  0.96153097  0.31017042  0.49958732  1
  I  I40  1  0.29727984  0.03013339  0.78890235  1
  I  I41  1  0.81832954  0.00820847  0.74809084  1
  I  I42  1  0.51440688  0.81349161  0.01251435  1
  I  I43  1  0.73360100  0.52319030  0.29156338  1
  I  I44  1  0.13892747  0.53668396  0.24645372  1
  I  I45  1  0.96270571  0.66869716  0.56757405  1
  I  I46  1  0.30882091  0.47113771  0.69264999  1
  I  I47  1  0.73235915  0.49349332  0.84106701  1
