# generated using pymatgen
data_ScAgH12C2(Br3N)2
_symmetry_space_group_name_H-M   'P 1'
_cell_length_a   7.93947727
_cell_length_b   10.93875683
_cell_length_c   7.71198202
_cell_angle_alpha   87.75452248
_cell_angle_beta   90.09053739
_cell_angle_gamma   90.01999315
_symmetry_Int_Tables_number   1
_chemical_formula_structural   ScAgH12C2(Br3N)2
_chemical_formula_sum   'Sc2 Ag2 H24 C4 Br12 N4'
_cell_volume   669.25514310
_cell_formula_units_Z   2
loop_
 _symmetry_equiv_pos_site_id
 _symmetry_equiv_pos_as_xyz
  1  'x, y, z'
loop_
 _atom_site_type_symbol
 _atom_site_label
 _atom_site_symmetry_multiplicity
 _atom_site_fract_x
 _atom_site_fract_y
 _atom_site_fract_z
 _atom_site_occupancy
  C  C0  1  0.42442045  0.24615126  0.42368784  1
  C  C1  1  0.92487844  0.25377784  0.07594451  1
  C  C2  1  0.57557530  0.75385168  0.57632677  1
  C  C3  1  0.07512888  0.74622705  0.92406683  1
  N  N4  1  0.57854554  0.24263341  0.53182714  1
  N  N5  1  0.07865914  0.25731148  0.96777704  1
  N  N6  1  0.42144997  0.75737069  0.46818708  1
  N  N7  1  0.92134867  0.74269061  0.03223474  1
  H  H8  1  0.46160668  0.25129349  0.28724336  1
  H  H9  1  0.35208092  0.16284586  0.45108755  1
  H  H10  1  0.35120486  0.32667859  0.45482219  1
  H  H11  1  0.64947714  0.16601077  0.50642631  1
  H  H12  1  0.65246459  0.31899575  0.50275394  1
  H  H13  1  0.55122934  0.24073104  0.66413677  1
  H  H14  1  0.96251719  0.24854084  0.21237292  1
  H  H15  1  0.85144247  0.17331948  0.04470463  1
  H  H16  1  0.85258497  0.33713968  0.04865708  1
  H  H17  1  0.15258999  0.18093097  0.99684404  1
  H  H18  1  0.14973639  0.33391632  0.99305102  1
  H  H19  1  0.05091312  0.25916841  0.83544553  1
  H  H20  1  0.53838976  0.74870858  0.71277064  1
  H  H21  1  0.64879030  0.67332404  0.54519042  1
  H  H22  1  0.64791555  0.83715675  0.54892758  1
  H  H23  1  0.35051969  0.83399454  0.49358837  1
  H  H24  1  0.34752957  0.68100947  0.49726081  1
  H  H25  1  0.44876594  0.75927281  0.33587812  1
  H  H26  1  0.03749055  0.75146668  0.78763839  1
  H  H27  1  0.14856352  0.82668513  0.95531018  1
  H  H28  1  0.14742354  0.66286528  0.95135119  1
  H  H29  1  0.84741621  0.81907090  0.00316898  1
  H  H30  1  0.85027165  0.66608526  0.00695646  1
  H  H31  1  0.94909339  0.74083142  0.16456501  1
  Sc  Sc32  1  0.50000036  0.00000071  0.00000492  1
  Sc  Sc33  1  -0.00000004  0.50000118  0.50000444  1
  Ag  Ag34  1  0.99999130  0.00000372  0.49999446  1
  Ag  Ag35  1  0.50000363  0.50000201  0.99999872  1
  Br  Br36  1  0.49768589  0.24337786  0.95409420  1
  Br  Br37  1  0.22047316  0.00610538  0.18931008  1
  Br  Br38  1  0.68969749  0.00839464  0.28276871  1
  Br  Br39  1  0.99763363  0.25658044  0.54554550  1
  Br  Br40  1  0.31029953  0.99161005  0.71724853  1
  Br  Br41  1  0.77952792  0.99389585  0.81070568  1
  Br  Br42  1  0.50231966  0.75662398  0.04592294  1
  Br  Br43  1  0.72001680  0.49382036  0.31022953  1
  Br  Br44  1  0.18915206  0.49184903  0.21767053  1
  Br  Br45  1  0.00236366  0.74342163  0.45446894  1
  Br  Br46  1  0.27998417  0.50618027  0.68978295  1
  Br  Br47  1  0.81085076  0.50815508  0.78234303  1
