# generated using pymatgen
data_ScGaH12C2(Br3N)2
_symmetry_space_group_name_H-M   'P 1'
_cell_length_a   8.02016688
_cell_length_b   11.39482369
_cell_length_c   7.79423043
_cell_angle_alpha   86.32961617
_cell_angle_beta   89.99734396
_cell_angle_gamma   90.02933110
_symmetry_Int_Tables_number   1
_chemical_formula_structural   ScGaH12C2(Br3N)2
_chemical_formula_sum   'Sc2 Ga2 H24 C4 Br12 N4'
_cell_volume   710.84101143
_cell_formula_units_Z   2
loop_
 _symmetry_equiv_pos_site_id
 _symmetry_equiv_pos_as_xyz
  1  'x, y, z'
loop_
 _atom_site_type_symbol
 _atom_site_label
 _atom_site_symmetry_multiplicity
 _atom_site_fract_x
 _atom_site_fract_y
 _atom_site_fract_z
 _atom_site_occupancy
  C  C0  1  0.39933087  0.24886100  0.41333184  1
  C  C1  1  0.90016689  0.25115185  0.08736118  1
  C  C2  1  0.60066473  0.75114335  0.58668104  1
  C  C3  1  0.09983957  0.74885032  0.91265047  1
  N  N4  1  0.55005982  0.24676659  0.52343684  1
  N  N5  1  0.05039145  0.25317866  0.97652024  1
  N  N6  1  0.44993561  0.75323929  0.47657598  1
  N  N7  1  0.94961386  0.74682105  0.02349013  1
  H  H8  1  0.43833493  0.25193252  0.27866580  1
  H  H9  1  0.32743869  0.16880204  0.44400687  1
  H  H10  1  0.32599656  0.32649288  0.43843646  1
  H  H11  1  0.62227184  0.17412527  0.50028081  1
  H  H12  1  0.62172302  0.32178818  0.49582590  1
  H  H13  1  0.52013508  0.24258911  0.65415339  1
  H  H14  1  0.93978023  0.24805214  0.22182054  1
  H  H15  1  0.82649493  0.17354481  0.06261912  1
  H  H16  1  0.82835153  0.33125063  0.05708526  1
  H  H17  1  0.12200298  0.17815203  0.00388124  1
  H  H18  1  0.12287405  0.32581978  0.99928055  1
  H  H19  1  0.01992462  0.25732015  0.84595774  1
  H  H20  1  0.56166157  0.74807315  0.72134692  1
  H  H21  1  0.67399725  0.67351050  0.56157659  1
  H  H22  1  0.67255907  0.83120141  0.55600458  1
  H  H23  1  0.37772493  0.82588115  0.49973220  1
  H  H24  1  0.37827089  0.67821810  0.50418737  1
  H  H25  1  0.47986009  0.75741617  0.34585983  1
  H  H26  1  0.06022650  0.75195144  0.77819052  1
  H  H27  1  0.17350979  0.82645766  0.93739478  1
  H  H28  1  0.17165579  0.66875198  0.94292443  1
  H  H29  1  0.87800085  0.82184660  0.99613006  1
  H  H30  1  0.87713380  0.67417886  0.00072828  1
  H  H31  1  0.98008004  0.74267903  0.15405329  1
  Sc  Sc32  1  0.50000247  0.00000167  0.00000831  1
  Sc  Sc33  1  0.99999874  0.50000203  0.50000365  1
  Ga  Ga34  1  0.99999933  0.00000320  0.50000868  1
  Ga  Ga35  1  0.50000358  0.50000227  0.99999956  1
  Br  Br36  1  0.47750429  0.23212996  0.94457738  1
  Br  Br37  1  0.21131332  0.00099615  0.16616547  1
  Br  Br38  1  0.66080787  0.01539458  0.29497211  1
  Br  Br39  1  0.97694641  0.26785717  0.55569665  1
  Br  Br40  1  0.33919576  0.98461105  0.70504550  1
  Br  Br41  1  0.78869264  0.99900550  0.83385165  1
  Br  Br42  1  0.52250271  0.76787406  0.05543860  1
  Br  Br43  1  0.71146088  0.49894371  0.33364250  1
  Br  Br44  1  0.16095870  0.48464987  0.20515865  1
  Br  Br45  1  0.02304898  0.73214648  0.44431594  1
  Br  Br46  1  0.28853632  0.50105952  0.66636858  1
  Br  Br47  1  0.83903990  0.51535335  0.79485311  1
