# generated using pymatgen
data_ScZnH12C2(Br3N)2
_symmetry_space_group_name_H-M   'P 1'
_cell_length_a   7.94618337
_cell_length_b   11.32527082
_cell_length_c   8.01111444
_cell_angle_alpha   86.39036575
_cell_angle_beta   89.40791650
_cell_angle_gamma   90.68829469
_symmetry_Int_Tables_number   1
_chemical_formula_structural   ScZnH12C2(Br3N)2
_chemical_formula_sum   'Sc2 Zn2 H24 C4 Br12 N4'
_cell_volume   719.41506901
_cell_formula_units_Z   2
loop_
 _symmetry_equiv_pos_site_id
 _symmetry_equiv_pos_as_xyz
  1  'x, y, z'
loop_
 _atom_site_type_symbol
 _atom_site_label
 _atom_site_symmetry_multiplicity
 _atom_site_fract_x
 _atom_site_fract_y
 _atom_site_fract_z
 _atom_site_occupancy
  C  C0  1  0.43282125  0.26027577  0.39205446  1
  C  C1  1  0.91425120  0.25996394  0.07918321  1
  C  C2  1  0.57763826  0.74185094  0.62208716  1
  C  C3  1  0.07353896  0.74279445  0.90805071  1
  N  N4  1  0.55566375  0.26245480  0.52998843  1
  N  N5  1  0.05914837  0.28676054  0.96392489  1
  N  N6  1  0.44931008  0.74001177  0.48934116  1
  N  N7  1  0.92525936  0.72539395  0.02191084  1
  H  H8  1  0.50163773  0.26949356  0.27283134  1
  H  H9  1  0.36250862  0.17655412  0.40329352  1
  H  H10  1  0.34797616  0.33486602  0.40108755  1
  H  H11  1  0.64392116  0.19660637  0.52151791  1
  H  H12  1  0.62065985  0.34320042  0.52143490  1
  H  H13  1  0.49981368  0.25139007  0.64810566  1
  H  H14  1  0.95947865  0.25524825  0.20786867  1
  H  H15  1  0.85906070  0.17503647  0.04984234  1
  H  H16  1  0.82189622  0.33060500  0.06156680  1
  H  H17  1  0.15574614  0.22683952  0.98362572  1
  H  H18  1  0.10882045  0.37006108  0.98253929  1
  H  H19  1  0.02463495  0.28528185  0.83914035  1
  H  H20  1  0.51264597  0.73626454  0.74351296  1
  H  H21  1  0.65911267  0.66552337  0.61244425  1
  H  H22  1  0.65025304  0.82449981  0.60600637  1
  H  H23  1  0.37194178  0.81215553  0.49908737  1
  H  H24  1  0.37550105  0.66295305  0.50610332  1
  H  H25  1  0.50002560  0.74408460  0.36889457  1
  H  H26  1  0.02929614  0.74626543  0.77902123  1
  H  H27  1  0.13658083  0.82595082  0.93351922  1
  H  H28  1  0.15859133  0.66826900  0.92986769  1
  H  H29  1  0.84069446  0.79378743  0.99976643  1
  H  H30  1  0.86389517  0.64622351  0.00166634  1
  H  H31  1  0.95862469  0.72349452  0.14730503  1
  Sc  Sc32  1  0.54456634  0.99942026  0.05390812  1
  Sc  Sc33  1  -0.00003861  0.47013175  0.50045994  1
  Zn  Zn34  1  0.11329841  0.94608266  0.43239998  1
  Zn  Zn35  1  0.50532052  0.48802793  0.00506621  1
  Br  Br36  1  0.47181541  0.20913212  0.93737976  1
  Br  Br37  1  0.19250152  0.01824394  0.15747338  1
  Br  Br38  1  0.69373727  0.01722484  0.32586260  1
  Br  Br39  1  0.98785210  0.24430886  0.54380138  1
  Br  Br40  1  0.28362720  0.98955782  0.65628245  1
  Br  Br41  1  0.78476312  0.98785559  0.84523053  1
  Br  Br42  1  0.48798507  0.77794283  0.07446002  1
  Br  Br43  1  0.71911467  0.50904976  0.34266827  1
  Br  Br44  1  0.16183210  0.50436314  0.21934730  1
  Br  Br45  1  0.98485553  0.75753781  0.44056500  1
  Br  Br46  1  0.28021413  0.49576967  0.66161889  1
  Br  Br47  1  0.83763067  0.50126883  0.77718308  1
