# generated using pymatgen
data_ScCuH12C2(Br3N)2
_symmetry_space_group_name_H-M   'P 1'
_cell_length_a   7.88093086
_cell_length_b   10.58913114
_cell_length_c   8.00792717
_cell_angle_alpha   89.11489725
_cell_angle_beta   89.99398800
_cell_angle_gamma   90.00029694
_symmetry_Int_Tables_number   1
_chemical_formula_structural   ScCuH12C2(Br3N)2
_chemical_formula_sum   'Sc2 Cu2 H24 C4 Br12 N4'
_cell_volume   668.19948288
_cell_formula_units_Z   2
loop_
 _symmetry_equiv_pos_site_id
 _symmetry_equiv_pos_as_xyz
  1  'x, y, z'
loop_
 _atom_site_type_symbol
 _atom_site_label
 _atom_site_symmetry_multiplicity
 _atom_site_fract_x
 _atom_site_fract_y
 _atom_site_fract_z
 _atom_site_occupancy
  C  C0  1  0.48214598  0.25535577  0.43351571  1
  C  C1  1  0.98232328  0.24463514  0.06641740  1
  C  C2  1  0.51945212  0.75275195  0.56682771  1
  C  C3  1  0.01939397  0.74726759  0.93326991  1
  N  N4  1  0.55338764  0.25278330  0.60402353  1
  N  N5  1  0.05337282  0.24722818  0.89581660  1
  N  N6  1  0.42502674  0.74913840  0.40717468  1
  N  N7  1  0.92505545  0.75088827  0.09299232  1
  H  H8  1  0.58607010  0.25921523  0.34365621  1
  H  H9  1  0.41004099  0.16785450  0.41472259  1
  H  H10  1  0.39956556  0.33773185  0.41848452  1
  H  H11  1  0.63052068  0.17443360  0.62604088  1
  H  H12  1  0.62607697  0.33286377  0.62779911  1
  H  H13  1  0.46057697  0.24984742  0.69547577  1
  H  H14  1  0.08635590  0.24073075  0.15613526  1
  H  H15  1  0.89972884  0.16227205  0.08152490  1
  H  H16  1  0.91028133  0.33214639  0.08534405  1
  H  H17  1  0.12601366  0.16714211  0.87192259  1
  H  H18  1  0.13049752  0.32557408  0.87371792  1
  H  H19  1  0.96044906  0.25019242  0.80449464  1
  H  H20  1  0.42829847  0.75038700  0.66940380  1
  H  H21  1  0.60266078  0.67037241  0.57540956  1
  H  H22  1  0.59469946  0.83952388  0.57005308  1
  H  H23  1  0.34259181  0.82498104  0.39373251  1
  H  H24  1  0.35242281  0.66779300  0.39664986  1
  H  H25  1  0.50316867  0.75241300  0.30282028  1
  H  H26  1  0.92818374  0.74966980  0.83075890  1
  H  H27  1  0.10263699  0.82962888  0.92464822  1
  H  H28  1  0.09459740  0.66048056  0.92997199  1
  H  H29  1  0.85251150  0.83225155  0.10360455  1
  H  H30  1  0.84258436  0.67506627  0.10647516  1
  H  H31  1  0.00326126  0.74756632  0.19728489  1
  Sc  Sc32  1  0.51058135  0.99787254  0.00883824  1
  Sc  Sc33  1  0.01057206  0.50212312  0.49118197  1
  Cu  Cu34  1  0.16321552  0.07576096  0.47090586  1
  Cu  Cu35  1  0.66324655  0.42416405  0.02916219  1
  Br  Br36  1  0.46597265  0.25251038  0.01212428  1
  Br  Br37  1  0.21528094  0.98734585  0.20538215  1
  Br  Br38  1  0.69577294  0.99378349  0.26906901  1
  Br  Br39  1  0.96602586  0.24748251  0.48776468  1
  Br  Br40  1  0.27866624  0.00943225  0.73453975  1
  Br  Br41  1  0.75905997  0.01451746  0.80207261  1
  Br  Br42  1  0.49448076  0.75656446  0.99769188  1
  Br  Br43  1  0.71527176  0.51259626  0.29466458  1
  Br  Br44  1  0.19578347  0.50628216  0.23093294  1
  Br  Br45  1  0.99439804  0.74342546  0.50241751  1
  Br  Br46  1  0.25907027  0.48551925  0.69789271  1
  Br  Br47  1  0.77867254  0.49051156  0.76548715  1
