# generated using pymatgen
data_TiHgH12C2(Br3N)2
_symmetry_space_group_name_H-M   'P 1'
_cell_length_a   8.07030015
_cell_length_b   11.60342526
_cell_length_c   7.91012775
_cell_angle_alpha   82.53797527
_cell_angle_beta   89.99063279
_cell_angle_gamma   90.06076486
_symmetry_Int_Tables_number   1
_chemical_formula_structural   TiHgH12C2(Br3N)2
_chemical_formula_sum   'Ti2 Hg2 H24 C4 Br12 N4'
_cell_volume   734.45551163
_cell_formula_units_Z   2
loop_
 _symmetry_equiv_pos_site_id
 _symmetry_equiv_pos_as_xyz
  1  'x, y, z'
loop_
 _atom_site_type_symbol
 _atom_site_label
 _atom_site_symmetry_multiplicity
 _atom_site_fract_x
 _atom_site_fract_y
 _atom_site_fract_z
 _atom_site_occupancy
  C  C0  1  0.39937654  0.24891867  0.40977945  1
  C  C1  1  0.90027500  0.25106077  0.09095417  1
  C  C2  1  0.60061910  0.75108533  0.59023424  1
  C  C3  1  0.09973238  0.74894090  0.90905598  1
  N  N4  1  0.54985373  0.24500057  0.51875733  1
  N  N5  1  0.05028115  0.25498826  0.98122172  1
  N  N6  1  0.45014043  0.75500570  0.48125795  1
  N  N7  1  0.94972583  0.74501096  0.01878798  1
  H  H8  1  0.43781501  0.25526776  0.27616235  1
  H  H9  1  0.32761418  0.16933762  0.44488447  1
  H  H10  1  0.32668783  0.32500835  0.43140547  1
  H  H11  1  0.62310568  0.17457614  0.50089026  1
  H  H12  1  0.62005469  0.32049423  0.48939567  1
  H  H13  1  0.51990190  0.23764954  0.64845729  1
  H  H14  1  0.93927719  0.24470861  0.22437425  1
  H  H15  1  0.82718861  0.17496303  0.06970395  1
  H  H16  1  0.82867180  0.33064546  0.05623250  1
  H  H17  1  0.12033945  0.17951168  0.01028867  1
  H  H18  1  0.12386607  0.32543076  0.99866477  1
  H  H19  1  0.01978705  0.26229572  0.85167608  1
  H  H20  1  0.56218266  0.74473732  0.72385181  1
  H  H21  1  0.67330510  0.67499472  0.56860761  1
  H  H22  1  0.67238339  0.83066551  0.55512762  1
  H  H23  1  0.37688969  0.82543043  0.49912629  1
  H  H24  1  0.37993857  0.67951202  0.51061973  1
  H  H25  1  0.48009137  0.76235649  0.35155823  1
  H  H26  1  0.06073064  0.75529478  0.77563571  1
  H  H27  1  0.17281780  0.82503870  0.93030903  1
  H  H28  1  0.17133656  0.66935646  0.94377551  1
  H  H29  1  0.87966578  0.82048671  0.98972249  1
  H  H30  1  0.87614291  0.67456760  0.00134301  1
  H  H31  1  0.98021899  0.73770264  0.14833398  1
  Ti  Ti32  1  0.50000344  0.00000244  0.00000918  1
  Ti  Ti33  1  0.99999726  0.50000158  0.50000378  1
  Hg  Hg34  1  0.00000300  0.00000157  0.50000816  1
  Hg  Hg35  1  0.49999700  0.50000621  0.99999909  1
  Br  Br36  1  0.47691885  0.21931967  0.93584602  1
  Br  Br37  1  0.21646231  0.99409457  0.13710023  1
  Br  Br38  1  0.62893140  0.01746554  0.28448615  1
  Br  Br39  1  0.97626590  0.28068838  0.56432055  1
  Br  Br40  1  0.37107390  0.98254153  0.71553212  1
  Br  Br41  1  0.78354366  0.00590708  0.86291735  1
  Br  Br42  1  0.52308888  0.78068562  0.06417333  1
  Br  Br43  1  0.71670077  0.50581270  0.36241249  1
  Br  Br44  1  0.12941696  0.48265225  0.21570440  1
  Br  Br45  1  0.02372795  0.71931478  0.43569009  1
  Br  Br46  1  0.28329527  0.49419043  0.63759341  1
  Br  Br47  1  0.87058013  0.51735049  0.78430465  1
