# generated using pymatgen
data_TiH12PtC2(Br3N)2
_symmetry_space_group_name_H-M   'P 1'
_cell_length_a   7.94142033
_cell_length_b   9.58352375
_cell_length_c   8.60368427
_cell_angle_alpha   87.90485652
_cell_angle_beta   89.45792446
_cell_angle_gamma   90.07929268
_symmetry_Int_Tables_number   1
_chemical_formula_structural   TiH12PtC2(Br3N)2
_chemical_formula_sum   'Ti2 H24 Pt2 C4 Br12 N4'
_cell_volume   654.33079283
_cell_formula_units_Z   2
loop_
 _symmetry_equiv_pos_site_id
 _symmetry_equiv_pos_as_xyz
  1  'x, y, z'
loop_
 _atom_site_type_symbol
 _atom_site_label
 _atom_site_symmetry_multiplicity
 _atom_site_fract_x
 _atom_site_fract_y
 _atom_site_fract_z
 _atom_site_occupancy
  C  C0  1  0.47498799  0.23986591  0.43563532  1
  C  C1  1  0.97431535  0.26164052  0.06785168  1
  C  C2  1  0.52435675  0.75914234  0.57287872  1
  C  C3  1  0.01723404  0.73764857  0.93234515  1
  N  N4  1  0.54911039  0.25038284  0.59192262  1
  N  N5  1  0.05359235  0.24954992  0.91244762  1
  N  N6  1  0.43744084  0.75678532  0.42149379  1
  N  N7  1  0.93777121  0.74391395  0.08829264  1
  H  H8  1  0.57672367  0.23746361  0.34969229  1
  H  H9  1  0.39853803  0.14453907  0.43333694  1
  H  H10  1  0.39510320  0.33103690  0.41303892  1
  H  H11  1  0.62628889  0.16644673  0.62218118  1
  H  H12  1  0.62194708  0.33988415  0.60212974  1
  H  H13  1  0.45595777  0.25268224  0.67658613  1
  H  H14  1  0.07275850  0.26623223  0.15522353  1
  H  H15  1  0.89502820  0.16985518  0.09171067  1
  H  H16  1  0.89690883  0.35613323  0.06817481  1
  H  H17  1  0.12986198  0.16158226  0.90454732  1
  H  H18  1  0.12794997  0.33511608  0.87928190  1
  H  H19  1  0.96360747  0.24211110  0.82685347  1
  H  H20  1  0.42959547  0.75811370  0.66567290  1
  H  H21  1  0.60457061  0.66696481  0.58550401  1
  H  H22  1  0.60062079  0.85411345  0.57606387  1
  H  H23  1  0.35023817  0.83824889  0.40988805  1
  H  H24  1  0.37065609  0.66474966  0.40704449  1
  H  H25  1  0.52153533  0.76763100  0.32910588  1
  H  H26  1  0.91786418  0.73597603  0.84575159  1
  H  H27  1  0.09691309  0.82972810  0.91181556  1
  H  H28  1  0.09368881  0.64296659  0.92764655  1
  H  H29  1  0.86887598  0.83497492  0.10301872  1
  H  H30  1  0.85507492  0.66113979  0.11072489  1
  H  H31  1  0.02709967  0.73878326  0.17504037  1
  Ti  Ti32  1  0.50859165  0.00606596  0.00016232  1
  Ti  Ti33  1  0.00363545  0.50648828  0.49245288  1
  Pt  Pt34  1  0.09161788  0.99588690  0.42421774  1
  Pt  Pt35  1  0.58253703  0.50363787  0.95086006  1
  Br  Br36  1  0.48712105  0.26638765  0.02511944  1
  Br  Br37  1  0.22991828  0.98618603  0.16150142  1
  Br  Br38  1  0.69110921  0.98444971  0.24010060  1
  Br  Br39  1  0.98785561  0.23162580  0.49664124  1
  Br  Br40  1  0.30702766  0.01605215  0.76592808  1
  Br  Br41  1  0.75646599  0.01334903  0.81617014  1
  Br  Br42  1  0.48605088  0.73802463  0.00299295  1
  Br  Br43  1  0.74273649  0.51234078  0.32796391  1
  Br  Br44  1  0.19940388  0.51708534  0.26088938  1
  Br  Br45  1  0.99722089  0.76493180  0.52263367  1
  Br  Br46  1  0.25289769  0.48639253  0.67889291  1
  Br  Br47  1  0.80961848  0.47577146  0.74086857  1
