# generated using pymatgen
data_BaFeH12C2(Br3N)2
_symmetry_space_group_name_H-M   'P 1'
_cell_length_a   7.97874770
_cell_length_b   11.24815709
_cell_length_c   7.68986648
_cell_angle_alpha   86.88642033
_cell_angle_beta   89.99993732
_cell_angle_gamma   90.01476968
_symmetry_Int_Tables_number   1
_chemical_formula_structural   BaFeH12C2(Br3N)2
_chemical_formula_sum   'Ba2 Fe2 H24 C4 Br12 N4'
_cell_volume   689.11756715
_cell_formula_units_Z   2
loop_
 _symmetry_equiv_pos_site_id
 _symmetry_equiv_pos_as_xyz
  1  'x, y, z'
loop_
 _atom_site_type_symbol
 _atom_site_label
 _atom_site_symmetry_multiplicity
 _atom_site_fract_x
 _atom_site_fract_y
 _atom_site_fract_z
 _atom_site_occupancy
  C  C0  1  0.39821671  0.25023812  0.41280684  1
  C  C1  1  0.89901940  0.24979274  0.08791706  1
  C  C2  1  0.60178062  0.74976611  0.58720587  1
  C  C3  1  0.10098539  0.75020978  0.91209380  1
  N  N4  1  0.54933944  0.24739136  0.52398338  1
  N  N5  1  0.04963333  0.25256420  0.97601310  1
  N  N6  1  0.45065744  0.75261429  0.47602996  1
  N  N7  1  0.95037193  0.74743523  0.02399845  1
  H  H8  1  0.43704674  0.25106450  0.27626731  1
  H  H9  1  0.32715590  0.16876677  0.44281957  1
  H  H10  1  0.32336419  0.32842387  0.43895406  1
  H  H11  1  0.62037419  0.17357212  0.49661428  1
  H  H12  1  0.62248723  0.32307254  0.49798104  1
  H  H13  1  0.51952676  0.24110946  0.65673942  1
  H  H14  1  0.93852062  0.24891545  0.22426658  1
  H  H15  1  0.82387066  0.17164337  0.06214326  1
  H  H16  1  0.82798965  0.33131709  0.05840206  1
  H  H17  1  0.12276976  0.17688963  0.00174743  1
  H  H18  1  0.12087998  0.32638926  0.00295225  1
  H  H19  1  0.01924965  0.25881175  0.84338337  1
  H  H20  1  0.56295107  0.74894104  0.72374571  1
  H  H21  1  0.67663079  0.67157900  0.56105941  1
  H  H22  1  0.67284381  0.83123616  0.55719206  1
  H  H23  1  0.37962433  0.82643430  0.50339952  1
  H  H24  1  0.37750867  0.67693389  0.50203177  1
  H  H25  1  0.48047025  0.75889631  0.34327377  1
  H  H26  1  0.06148371  0.75108911  0.77574437  1
  H  H27  1  0.17613348  0.82835890  0.93787036  1
  H  H28  1  0.17201596  0.66868529  0.94160529  1
  H  H29  1  0.87723279  0.82310866  0.99826513  1
  H  H30  1  0.87912789  0.67360892  0.99705867  1
  H  H31  1  0.98075583  0.74118785  0.15662807  1
  Fe  Fe32  1  0.50000161  0.00000193  0.00000747  1
  Fe  Fe33  1  0.99999926  0.50000184  0.50000528  1
  Ba  Ba34  1  0.00000042  0.00000210  0.50000694  1
  Ba  Ba35  1  0.49999970  0.50000249  0.00000525  1
  Br  Br36  1  0.47817866  0.22058772  0.94680686  1
  Br  Br37  1  0.22588179  0.00228809  0.15856453  1
  Br  Br38  1  0.65339799  0.01457679  0.28535092  1
  Br  Br39  1  0.97773970  0.27942901  0.55352345  1
  Br  Br40  1  0.34660359  0.98542850  0.71466430  1
  Br  Br41  1  0.77412178  0.99771403  0.84145109  1
  Br  Br42  1  0.52182573  0.77941655  0.05320812  1
  Br  Br43  1  0.72600766  0.49762393  0.34127008  1
  Br  Br44  1  0.15356240  0.48543810  0.21472991  1
  Br  Br45  1  0.02225782  0.72057483  0.44648853  1
  Br  Br46  1  0.27399114  0.50237980  0.65874028  1
  Br  Br47  1  0.84643635  0.51456550  0.78528034  1
