# generated using pymatgen
data_NiHgH12C2(Br3N)2
_symmetry_space_group_name_H-M   'P 1'
_cell_length_a   7.24215681
_cell_length_b   11.12674384
_cell_length_c   8.19755778
_cell_angle_alpha   85.72177745
_cell_angle_beta   89.98102053
_cell_angle_gamma   89.99915392
_symmetry_Int_Tables_number   1
_chemical_formula_structural   NiHgH12C2(Br3N)2
_chemical_formula_sum   'Ni2 Hg2 H24 C4 Br12 N4'
_cell_volume   658.73183449
_cell_formula_units_Z   2
loop_
 _symmetry_equiv_pos_site_id
 _symmetry_equiv_pos_as_xyz
  1  'x, y, z'
loop_
 _atom_site_type_symbol
 _atom_site_label
 _atom_site_symmetry_multiplicity
 _atom_site_fract_x
 _atom_site_fract_y
 _atom_site_fract_z
 _atom_site_occupancy
  C  C0  1  0.45266833  0.24601679  0.39082807  1
  C  C1  1  0.95860819  0.24936767  0.10790512  1
  C  C2  1  0.54127900  0.74931266  0.60813751  1
  C  C3  1  0.04756554  0.74602484  0.89094053  1
  N  N4  1  0.51879056  0.25467144  0.56077700  1
  N  N5  1  0.02706930  0.25379905  0.93702138  1
  N  N6  1  0.47283068  0.75390271  0.43728947  1
  N  N7  1  0.98121152  0.75459044  0.06088032  1
  H  H8  1  0.57158417  0.25186668  0.30875920  1
  H  H9  1  0.38210131  0.15982943  0.38243249  1
  H  H10  1  0.35803221  0.32102071  0.36119087  1
  H  H11  1  0.60849910  0.18558695  0.59743372  1
  H  H12  1  0.58856855  0.33504261  0.57070649  1
  H  H13  1  0.41097749  0.25173311  0.64367251  1
  H  H14  1  0.07699993  0.25011970  0.19017877  1
  H  H15  1  0.87958382  0.16624449  0.13162088  1
  H  H16  1  0.87137764  0.32804568  0.12304128  1
  H  H17  1  0.12542341  0.18758713  0.92400604  1
  H  H18  1  0.08846583  0.33557996  0.90084672  1
  H  H19  1  0.92180769  0.24089711  0.85481324  1
  H  H20  1  0.42290066  0.75018929  0.69048650  1
  H  H21  1  0.62005179  0.66608211  0.63173358  1
  H  H22  1  0.62875043  0.82787056  0.62326857  1
  H  H23  1  0.41176043  0.83579886  0.40122780  1
  H  H24  1  0.37418173  0.68787310  0.42431855  1
  H  H25  1  0.57802189  0.74084795  0.35500735  1
  H  H26  1  0.92873129  0.75175984  0.80885209  1
  H  H27  1  0.14204221  0.82112845  0.86131141  1
  H  H28  1  0.11836037  0.65991187  0.88252229  1
  H  H29  1  0.91122700  0.83488838  0.07084161  1
  H  H30  1  0.89162761  0.68541556  0.09751915  1
  H  H31  1  0.08893928  0.75174050  0.14379390  1
  Ni  Ni32  1  0.50619514  0.99726806  0.00218589  1
  Ni  Ni33  1  0.99380803  0.49727772  0.50219200  1
  Hg  Hg34  1  0.00407659  0.99757181  0.50300503  1
  Hg  Hg35  1  0.49593942  0.49753616  0.00313093  1
  Br  Br36  1  0.48524689  0.20973241  0.97089484  1
  Br  Br37  1  0.23969192  0.98730497  0.16783091  1
  Br  Br38  1  0.72815510  0.99203476  0.31829304  1
  Br  Br39  1  0.97710027  0.28437462  0.52854521  1
  Br  Br40  1  0.28363157  0.00549627  0.68311296  1
  Br  Br41  1  0.77504408  0.00887298  0.83913983  1
  Br  Br42  1  0.52288696  0.78436966  0.02874415  1
  Br  Br43  1  0.72503268  0.50898260  0.33924806  1
  Br  Br44  1  0.21635519  0.50544916  0.18334301  1
  Br  Br45  1  0.01478835  0.70974044  0.47102958  1
  Br  Br46  1  0.26011529  0.48723326  0.66791210  1
  Br  Br47  1  0.77191725  0.49208776  0.81832461  1
