# generated using pymatgen
data_HfNiH12C2(Br3N)2
_symmetry_space_group_name_H-M   'P 1'
_cell_length_a   8.74950984
_cell_length_b   9.25914566
_cell_length_c   7.97497102
_cell_angle_alpha   90.11341035
_cell_angle_beta   90.09195766
_cell_angle_gamma   89.87854810
_symmetry_Int_Tables_number   1
_chemical_formula_structural   HfNiH12C2(Br3N)2
_chemical_formula_sum   'Hf2 Ni2 H24 C4 Br12 N4'
_cell_volume   646.07267153
_cell_formula_units_Z   2
loop_
 _symmetry_equiv_pos_site_id
 _symmetry_equiv_pos_as_xyz
  1  'x, y, z'
loop_
 _atom_site_type_symbol
 _atom_site_label
 _atom_site_symmetry_multiplicity
 _atom_site_fract_x
 _atom_site_fract_y
 _atom_site_fract_z
 _atom_site_occupancy
  C  C0  1  0.46243590  0.22225708  0.45639381  1
  C  C1  1  0.95358494  0.26909841  0.05078643  1
  C  C2  1  0.54701975  0.77171413  0.55003284  1
  C  C3  1  0.03755536  0.72076386  0.95474894  1
  N  N4  1  0.59687243  0.25068698  0.56429255  1
  N  N5  1  0.08036378  0.25916536  0.92922729  1
  N  N6  1  0.41841756  0.75362137  0.43161736  1
  N  N7  1  0.90322920  0.75168128  0.06168809  1
  H  H8  1  0.49934228  0.21673534  0.32573000  1
  H  H9  1  0.41045585  0.12066839  0.49513866  1
  H  H10  1  0.37965685  0.31013418  0.47305333  1
  H  H11  1  0.67957556  0.17134475  0.54909883  1
  H  H12  1  0.64764061  0.34806656  0.53417156  1
  H  H13  1  0.56819028  0.25357679  0.69090912  1
  H  H14  1  1.00032311  0.26787618  0.17780958  1
  H  H15  1  0.87749122  0.17705623  0.03214523  1
  H  H16  1  0.89008633  0.36888887  0.02879749  1
  H  H17  1  0.15059015  0.16714824  0.95018732  1
  H  H18  1  0.15306974  0.34684823  0.93774104  1
  H  H19  1  0.04192229  0.25444128  0.80574081  1
  H  H20  1  0.50307268  0.77249911  0.67810464  1
  H  H21  1  0.62712937  0.68219200  0.53321368  1
  H  H22  1  0.60515976  0.87310317  0.52239781  1
  H  H23  1  0.34199212  0.83886954  0.43830394  1
  H  H24  1  0.35271139  0.65998848  0.45676313  1
  H  H25  1  0.45492678  0.74709728  0.30772575  1
  H  H26  1  0.00090471  0.71601870  0.82380281  1
  H  H27  1  0.12185475  0.80694131  0.97204464  1
  H  H28  1  0.08748660  0.61809949  0.99372043  1
  H  H29  1  0.85419023  0.84995369  0.03102525  1
  H  H30  1  0.81938114  0.67386800  0.04543548  1
  H  H31  1  0.93149298  0.75402386  0.18853269  1
  Ni  Ni32  1  0.33274965  0.01121042  0.98989466  1
  Ni  Ni33  1  0.16606529  0.50784344  0.49055796  1
  Hf  Hf34  1  0.00987099  0.99902560  0.50119915  1
  Hf  Hf35  1  0.49084666  0.49896180  0.00278490  1
  Br  Br36  1  0.50380319  0.21323257  0.97899206  1
  Br  Br37  1  0.19327146  0.00834815  0.24139984  1
  Br  Br38  1  0.77071689  0.01503634  0.30258517  1
  Br  Br39  1  0.00600067  0.28583557  0.51937819  1
  Br  Br40  1  0.24191957  0.97812393  0.71046987  1
  Br  Br41  1  0.82261618  0.99415260  0.75816149  1
  Br  Br42  1  0.49296200  0.78554123  0.02107115  1
  Br  Br43  1  0.67770777  0.49463055  0.26036798  1
  Br  Br44  1  0.25804249  0.47735212  0.21025280  1
  Br  Br45  1  0.99788684  0.71328303  0.47717223  1
  Br  Br46  1  0.30777109  0.50865401  0.74164728  1
  Br  Br47  1  0.72966727  0.51441875  0.80398131  1
