# generated using pymatgen
data_CuBiH12C2(Br3N)2
_symmetry_space_group_name_H-M   'P 1'
_cell_length_a   8.32289832
_cell_length_b   10.15344507
_cell_length_c   8.30355016
_cell_angle_alpha   89.51862478
_cell_angle_beta   89.96261799
_cell_angle_gamma   89.99834056
_symmetry_Int_Tables_number   1
_chemical_formula_structural   CuBiH12C2(Br3N)2
_chemical_formula_sum   'Cu2 Bi2 H24 C4 Br12 N4'
_cell_volume   701.67565034
_cell_formula_units_Z   2
loop_
 _symmetry_equiv_pos_site_id
 _symmetry_equiv_pos_as_xyz
  1  'x, y, z'
loop_
 _atom_site_type_symbol
 _atom_site_label
 _atom_site_symmetry_multiplicity
 _atom_site_fract_x
 _atom_site_fract_y
 _atom_site_fract_z
 _atom_site_occupancy
  C  C0  1  0.45837154  0.25077828  0.42827303  1
  C  C1  1  0.95878635  0.24912450  0.07095222  1
  C  C2  1  0.53920003  0.74792716  0.57107888  1
  C  C3  1  0.03876090  0.75201270  0.92955597  1
  N  N4  1  0.55543951  0.24937723  0.57838589  1
  N  N5  1  0.05511762  0.25035385  0.92023759  1
  N  N6  1  0.43580147  0.75018056  0.42525958  1
  N  N7  1  0.93598893  0.75009152  0.07596903  1
  H  H8  1  0.53950832  0.25176851  0.32496682  1
  H  H9  1  0.38348791  0.16240098  0.42606368  1
  H  H10  1  0.38275146  0.33887400  0.42743231  1
  H  H11  1  0.62449211  0.16471501  0.58951556  1
  H  H12  1  0.63424385  0.32824906  0.58323032  1
  H  H13  1  0.48399215  0.25328289  0.68073796  1
  H  H14  1  0.04040684  0.24803751  0.17376444  1
  H  H15  1  0.88300057  0.16110406  0.07225491  1
  H  H16  1  0.88405897  0.33756901  0.07356517  1
  H  H17  1  0.13375085  0.17141229  0.91492034  1
  H  H18  1  0.12426029  0.33496030  0.90849097  1
  H  H19  1  0.98311589  0.24644683  0.81837075  1
  H  H20  1  0.46215509  0.74564899  0.67756548  1
  H  H21  1  0.61622280  0.66077491  0.56752341  1
  H  H22  1  0.61291787  0.83699202  0.57160980  1
  H  H23  1  0.36586449  0.83454127  0.41858844  1
  H  H24  1  0.35790327  0.67056277  0.42282994  1
  H  H25  1  0.50257640  0.74776705  0.31969751  1
  H  H26  1  0.96128948  0.75432190  0.82349188  1
  H  H27  1  0.11601657  0.83906368  0.93258034  1
  H  H28  1  0.11227656  0.66285063  0.92877276  1
  H  H29  1  0.85819865  0.82974395  0.07868663  1
  H  H30  1  0.86598895  0.66575866  0.08338331  1
  H  H31  1  0.00329248  0.75267338  0.18108097  1
  Cu  Cu32  1  0.61255447  0.00910135  0.02180006  1
  Cu  Cu33  1  0.11318627  0.49154308  0.47873004  1
  Bi  Bi34  1  0.00602386  0.99806621  0.49734795  1
  Bi  Bi35  1  0.50615647  0.50201707  0.00290854  1
  Br  Br36  1  0.46778502  0.21711971  0.99193162  1
  Br  Br37  1  0.19815982  0.98741703  0.22701522  1
  Br  Br38  1  0.70803253  0.99298873  0.29813013  1
  Br  Br39  1  0.96864119  0.28297826  0.50740036  1
  Br  Br40  1  0.27319293  0.00432858  0.69540576  1
  Br  Br41  1  0.78596571  0.01337722  0.78288962  1
  Br  Br42  1  0.49295221  0.78454908  0.00745694  1
  Br  Br43  1  0.69821969  0.51229981  0.27310086  1
  Br  Br44  1  0.20806756  0.50735626  0.20215075  1
  Br  Br45  1  0.99240093  0.71552744  0.49342230  1
  Br  Br46  1  0.28628142  0.48677773  0.71733029  1
  Br  Br47  1  0.77316546  0.49526527  0.80444023  1
