# generated using pymatgen
data_HgBH12C2(I3N)2
_symmetry_space_group_name_H-M   'P 1'
_cell_length_a   8.89499973
_cell_length_b   10.24748692
_cell_length_c   9.53990415
_cell_angle_alpha   89.15594303
_cell_angle_beta   86.42209027
_cell_angle_gamma   88.66158344
_symmetry_Int_Tables_number   1
_chemical_formula_structural   HgBH12C2(I3N)2
_chemical_formula_sum   'Hg2 B2 H24 C4 I12 N4'
_cell_volume   867.56707705
_cell_formula_units_Z   2
loop_
 _symmetry_equiv_pos_site_id
 _symmetry_equiv_pos_as_xyz
  1  'x, y, z'
loop_
 _atom_site_type_symbol
 _atom_site_label
 _atom_site_symmetry_multiplicity
 _atom_site_fract_x
 _atom_site_fract_y
 _atom_site_fract_z
 _atom_site_occupancy
  C  C0  1  0.43366132  0.21283503  0.45449174  1
  C  C1  1  0.96896752  0.27590281  0.08561450  1
  C  C2  1  0.51845882  0.75875046  0.58147034  1
  C  C3  1  0.05889001  0.74605777  0.91321707  1
  N  N4  1  0.57305192  0.19954412  0.53241480  1
  N  N5  1  0.02660643  0.25183090  0.93882717  1
  N  N6  1  0.46041245  0.79151611  0.44148693  1
  N  N7  1  0.94344604  0.78893256  0.02350254  1
  H  H8  1  0.45996145  0.26280489  0.35404429  1
  H  H9  1  0.39292799  0.11509571  0.43452663  1
  H  H10  1  0.34835780  0.26884256  0.51757886  1
  H  H11  1  0.65398402  0.13942430  0.47682173  1
  H  H12  1  0.62043054  0.28865807  0.54794571  1
  H  H13  1  0.55216381  0.15601837  0.63075172  1
  H  H14  1  0.05980080  0.31466874  0.14418588  1
  H  H15  1  0.92993105  0.18386126  0.13361899  1
  H  H16  1  0.87528090  0.34687392  0.08310983  1
  H  H17  1  0.12215532  0.19140142  0.93416894  1
  H  H18  1  0.05699240  0.33704305  0.88471587  1
  H  H19  1  0.94802801  0.20282416  0.88122115  1
  H  H20  1  0.42558655  0.72619138  0.65329112  1
  H  H21  1  0.60440407  0.68082534  0.56900720  1
  H  H22  1  0.56989848  0.84563800  0.62188636  1
  H  H23  1  0.36461735  0.85259716  0.45172988  1
  H  H24  1  0.43008426  0.70988172  0.38779286  1
  H  H25  1  0.54474451  0.84057691  0.37916761  1
  H  H26  1  1.00019562  0.71354806  0.82290423  1
  H  H27  1  0.12871034  0.82967103  0.88234705  1
  H  H28  1  0.12809129  0.66641240  0.95468785  1
  H  H29  1  0.87565794  0.86388172  0.98346762  1
  H  H30  1  0.87306174  0.71383809  0.05520612  1
  H  H31  1  0.99131328  0.82520912  0.11088244  1
  B  B32  1  0.41594229  0.00951743  0.01017436  1
  B  B33  1  0.88788623  0.48607898  0.43081344  1
  Hg  Hg34  1  0.11207145  0.95990612  0.53366085  1
  Hg  Hg35  1  0.45007542  0.45012328  0.96125100  1
  I  I36  1  0.55972134  0.17999465  0.06020736  1
  I  I37  1  0.22029567  0.00125336  0.17233179  1
  I  I38  1  0.77309772  0.96783108  0.32337370  1
  I  I39  1  0.97252635  0.29785568  0.48370428  1
  I  I40  1  0.32823164  0.04618679  0.79472822  1
  I  I41  1  0.83007403  0.02358723  0.76228468  1
  I  I42  1  0.53550012  0.81666659  0.00542531  1
  I  I43  1  0.69349415  0.50339087  0.30764810  1
  I  I44  1  0.28183498  0.52582274  0.20695558  1
  I  I45  1  0.98209199  0.65953202  0.50041483  1
  I  I46  1  0.27262366  0.46468612  0.72966834  1
  I  I47  1  0.74468268  0.50648819  0.85156970  1
