# generated using pymatgen
data_CuH12AuC2(Br3N)2
_symmetry_space_group_name_H-M   'P 1'
_cell_length_a   7.42382933
_cell_length_b   10.66655004
_cell_length_c   8.26174041
_cell_angle_alpha   90.41960275
_cell_angle_beta   89.97664877
_cell_angle_gamma   90.00561983
_symmetry_Int_Tables_number   1
_chemical_formula_structural   CuH12AuC2(Br3N)2
_chemical_formula_sum   'Cu2 H24 Au2 C4 Br12 N4'
_cell_volume   654.20192149
_cell_formula_units_Z   2
loop_
 _symmetry_equiv_pos_site_id
 _symmetry_equiv_pos_as_xyz
  1  'x, y, z'
loop_
 _atom_site_type_symbol
 _atom_site_label
 _atom_site_symmetry_multiplicity
 _atom_site_fract_x
 _atom_site_fract_y
 _atom_site_fract_z
 _atom_site_occupancy
  C  C0  1  0.45215817  0.25018598  0.40446938  1
  C  C1  1  0.95209386  0.24984064  0.09504675  1
  C  C2  1  0.54847976  0.75013006  0.59792466  1
  C  C3  1  0.04867597  0.74989584  0.90247515  1
  N  N4  1  0.53306479  0.25403142  0.56846244  1
  N  N5  1  0.03311373  0.24601473  0.93103878  1
  N  N6  1  0.46621775  0.74570654  0.43451015  1
  N  N7  1  0.96643122  0.75420995  0.06595661  1
  H  H8  1  0.56064533  0.25043525  0.31531888  1
  H  H9  1  0.37210369  0.16466273  0.39202570  1
  H  H10  1  0.36721229  0.33308248  0.39031877  1
  H  H11  1  0.61422682  0.17688794  0.58871412  1
  H  H12  1  0.61232825  0.33317834  0.58383317  1
  H  H13  1  0.43626420  0.25572686  0.65856685  1
  H  H14  1  0.06052049  0.24955588  0.18417748  1
  H  H15  1  0.86709442  0.16696224  0.10918151  1
  H  H16  1  0.87208085  0.33538397  0.10750775  1
  H  H17  1  0.11232987  0.16682188  0.91559118  1
  H  H18  1  0.11433586  0.32310607  0.91078224  1
  H  H19  1  0.93637439  0.24436165  0.84093608  1
  H  H20  1  0.44075573  0.75043350  0.68783940  1
  H  H21  1  0.63331829  0.66717634  0.61216041  1
  H  H22  1  0.62878361  0.83561778  0.60925778  1
  H  H23  1  0.38480733  0.82275854  0.41444336  1
  H  H24  1  0.38678244  0.66652211  0.42029306  1
  H  H25  1  0.56220597  0.74365187  0.34369510  1
  H  H26  1  0.94094108  0.74966290  0.81264942  1
  H  H27  1  0.13353875  0.83284554  0.88826422  1
  H  H28  1  0.12894729  0.66439885  0.89099348  1
  H  H29  1  0.88705721  0.83343275  0.08037145  1
  H  H30  1  0.88498917  0.67719145  0.08600241  1
  H  H31  1  0.06244756  0.75617361  0.15669138  1
  Cu  Cu32  1  0.50372994  0.00023938  0.00422048  1
  Cu  Cu33  1  0.00377666  0.49975557  0.49593666  1
  Au  Au34  1  0.99914088  0.00034827  0.49834632  1
  Au  Au35  1  0.49919939  0.49966020  0.00175987  1
  Br  Br36  1  0.47879016  0.26295762  0.97859971  1
  Br  Br37  1  0.24789234  0.99466415  0.15809617  1
  Br  Br38  1  0.72664393  0.99138597  0.31834174  1
  Br  Br39  1  0.97877751  0.23707565  0.52105046  1
  Br  Br40  1  0.27117449  0.00886938  0.67843583  1
  Br  Br41  1  0.75325905  0.00510343  0.84185617  1
  Br  Br42  1  0.51913577  0.73635686  0.02481508  1
  Br  Br43  1  0.74803521  0.50537206  0.34205634  1
  Br  Br44  1  0.22658815  0.50853718  0.18181042  1
  Br  Br45  1  0.01898354  0.76362495  0.47564386  1
  Br  Br46  1  0.25325434  0.49481520  0.65824005  1
  Br  Br47  1  0.77131625  0.49126674  0.82158829  1
