# generated using pymatgen
data_CuH12IrC2(Br3N)2
_symmetry_space_group_name_H-M   'P 1'
_cell_length_a   8.17069849
_cell_length_b   9.11982141
_cell_length_c   8.42694574
_cell_angle_alpha   92.18023778
_cell_angle_beta   89.94121909
_cell_angle_gamma   90.08516939
_symmetry_Int_Tables_number   1
_chemical_formula_structural   CuH12IrC2(Br3N)2
_chemical_formula_sum   'Cu2 H24 Ir2 C4 Br12 N4'
_cell_volume   627.48092923
_cell_formula_units_Z   2
loop_
 _symmetry_equiv_pos_site_id
 _symmetry_equiv_pos_as_xyz
  1  'x, y, z'
loop_
 _atom_site_type_symbol
 _atom_site_label
 _atom_site_symmetry_multiplicity
 _atom_site_fract_x
 _atom_site_fract_y
 _atom_site_fract_z
 _atom_site_occupancy
  C  C0  1  0.46138937  0.25478619  0.43636469  1
  C  C1  1  0.96874001  0.24584518  0.06689988  1
  C  C2  1  0.53392040  0.74556148  0.57024292  1
  C  C3  1  0.03300033  0.75697408  0.93128631  1
  N  N4  1  0.54962780  0.24940716  0.58894281  1
  N  N5  1  0.05637281  0.25185107  0.91460845  1
  N  N6  1  0.43852606  0.75388952  0.42207411  1
  N  N7  1  0.94509464  0.74464127  0.08316303  1
  H  H8  1  0.55006337  0.25687532  0.33978698  1
  H  H9  1  0.38362692  0.15766127  0.42276364  1
  H  H10  1  0.38534859  0.35326837  0.43771777  1
  H  H11  1  0.62368104  0.15739383  0.59736678  1
  H  H12  1  0.62472952  0.33968844  0.61189368  1
  H  H13  1  0.46781547  0.24846237  0.68295270  1
  H  H14  1  0.05683427  0.24636691  0.16407086  1
  H  H15  1  0.89698950  0.14455151  0.06806054  1
  H  H16  1  0.88605291  0.33966535  0.07752607  1
  H  H17  1  0.12986540  0.16083875  0.88998994  1
  H  H18  1  0.13214618  0.34360186  0.90677872  1
  H  H19  1  0.97434892  0.25545594  0.82114390  1
  H  H20  1  0.44963488  0.74564840  0.67063621  1
  H  H21  1  0.60719330  0.64539343  0.56591397  1
  H  H22  1  0.61469539  0.84078113  0.58040550  1
  H  H23  1  0.36468261  0.84662057  0.42028016  1
  H  H24  1  0.36156866  0.66456825  0.40146465  1
  H  H25  1  0.51430097  0.75706901  0.32373017  1
  H  H26  1  0.94343663  0.75939546  0.83568632  1
  H  H27  1  0.10637000  0.85718885  0.93586798  1
  H  H28  1  0.11275963  0.66166578  0.91429063  1
  H  H29  1  0.86847539  0.83300816  0.10991811  1
  H  H30  1  0.87224922  0.65147925  0.08467940  1
  H  H31  1  0.02674522  0.74217702  0.17698363  1
  Cu  Cu32  1  0.64657634  0.00399299  0.01729944  1
  Cu  Cu33  1  0.97872748  0.49500693  0.35738971  1
  Ir  Ir34  1  0.99366849  0.99779001  0.49326098  1
  Ir  Ir35  1  0.50649048  0.49813662  0.00750382  1
  Br  Br36  1  0.47896244  0.21888301  0.00675431  1
  Br  Br37  1  0.18189279  0.98381707  0.26076311  1
  Br  Br38  1  0.74297399  0.98955458  0.31110297  1
  Br  Br39  1  0.99219899  0.27888851  0.51121161  1
  Br  Br40  1  0.23676544  0.00598435  0.67548420  1
  Br  Br41  1  0.80064876  0.01582627  0.74150445  1
  Br  Br42  1  0.48933231  0.77888518  0.00354746  1
  Br  Br43  1  0.69141877  0.51449223  0.25265334  1
  Br  Br44  1  0.25001695  0.50974542  0.19161204  1
  Br  Br45  1  0.00516219  0.71889386  0.51602807  1
  Br  Br46  1  0.31667737  0.48670040  0.77371022  1
  Br  Br47  1  0.74822556  0.49169969  0.82698036  1
