# generated using pymatgen
data_CuSbH12C2(Br3N)2
_symmetry_space_group_name_H-M   'P 1'
_cell_length_a   8.47348600
_cell_length_b   10.00913710
_cell_length_c   8.22443013
_cell_angle_alpha   89.77115030
_cell_angle_beta   89.99336085
_cell_angle_gamma   89.99808472
_symmetry_Int_Tables_number   1
_chemical_formula_structural   CuSbH12C2(Br3N)2
_chemical_formula_sum   'Cu2 Sb2 H24 C4 Br12 N4'
_cell_volume   697.52712707
_cell_formula_units_Z   2
loop_
 _symmetry_equiv_pos_site_id
 _symmetry_equiv_pos_as_xyz
  1  'x, y, z'
loop_
 _atom_site_type_symbol
 _atom_site_label
 _atom_site_symmetry_multiplicity
 _atom_site_fract_x
 _atom_site_fract_y
 _atom_site_fract_z
 _atom_site_occupancy
  C  C0  1  0.45615082  0.24981503  0.43731373  1
  C  C1  1  0.95613337  0.25004426  0.06241875  1
  C  C2  1  0.54052170  0.74823008  0.56478433  1
  C  C3  1  0.04073829  0.75193057  0.93543828  1
  N  N4  1  0.56500056  0.24710937  0.57880812  1
  N  N5  1  0.06497127  0.25293290  0.92089334  1
  N  N6  1  0.42611230  0.75122399  0.42805214  1
  N  N7  1  0.92643216  0.74872441  0.07228543  1
  H  H8  1  0.52566127  0.24855183  0.32560054  1
  H  H9  1  0.37996667  0.16190872  0.44315913  1
  H  H10  1  0.38493891  0.34068797  0.44345548  1
  H  H11  1  0.63495599  0.16208610  0.58005033  1
  H  H12  1  0.64121096  0.32797706  0.57871357  1
  H  H13  1  0.50519179  0.24819061  0.68942167  1
  H  H14  1  0.02564785  0.25121327  0.17411351  1
  H  H15  1  0.88497519  0.15914951  0.05614613  1
  H  H16  1  0.87989281  0.33792377  0.05672856  1
  H  H17  1  0.14115243  0.17204404  0.92074516  1
  H  H18  1  0.13495449  0.33793975  0.91981317  1
  H  H19  1  0.00515354  0.25203871  0.81028995  1
  H  H20  1  0.47471951  0.74688576  0.67901343  1
  H  H21  1  0.61359066  0.65877415  0.55422388  1
  H  H22  1  0.61442317  0.83747932  0.55804985  1
  H  H23  1  0.35428653  0.83479906  0.43325740  1
  H  H24  1  0.35240198  0.66849515  0.42963558  1
  H  H25  1  0.48096168  0.75355578  0.31484573  1
  H  H26  1  0.97485179  0.75337798  0.82127990  1
  H  H27  1  0.11374829  0.84140976  0.94608596  1
  H  H28  1  0.11471781  0.66271476  0.94194541  1
  H  H29  1  0.85267565  0.83142472  0.07096892  1
  H  H30  1  0.85465497  0.66512471  0.06700369  1
  H  H31  1  0.98137518  0.74627264  0.18543024  1
  Cu  Cu32  1  0.61968911  0.00833836  0.02040652  1
  Cu  Cu33  1  0.11973826  0.49163050  0.47960914  1
  Sb  Sb34  1  0.00666438  0.99740087  0.49605058  1
  Sb  Sb35  1  0.50671657  0.50262370  0.00402277  1
  Br  Br36  1  0.47300081  0.21629576  0.98558748  1
  Br  Br37  1  0.19166255  0.99507688  0.23268814  1
  Br  Br38  1  0.71543754  0.99913204  0.29818568  1
  Br  Br39  1  0.97289074  0.28374040  0.51428165  1
  Br  Br40  1  0.26207183  0.99674732  0.69180681  1
  Br  Br41  1  0.78941241  0.00516731  0.78076931  1
  Br  Br42  1  0.49095121  0.78373970  0.01463241  1
  Br  Br43  1  0.69155634  0.50493975  0.26744953  1
  Br  Br44  1  0.21530032  0.50079301  0.20174781  1
  Br  Br45  1  0.99099886  0.71625844  0.48564744  1
  Br  Br46  1  0.28958580  0.49474258  0.71910187  1
  Br  Br47  1  0.76217740  0.50341593  0.80833812  1
