# generated using pymatgen
data_InCuH12C2(Br3N)2
_symmetry_space_group_name_H-M   'P 1'
_cell_length_a   8.40338305
_cell_length_b   9.75894464
_cell_length_c   8.10627978
_cell_angle_alpha   90.13893751
_cell_angle_beta   90.00221195
_cell_angle_gamma   90.00009560
_symmetry_Int_Tables_number   1
_chemical_formula_structural   InCuH12C2(Br3N)2
_chemical_formula_sum   'In2 Cu2 H24 C4 Br12 N4'
_cell_volume   664.77905277
_cell_formula_units_Z   2
loop_
 _symmetry_equiv_pos_site_id
 _symmetry_equiv_pos_as_xyz
  1  'x, y, z'
loop_
 _atom_site_type_symbol
 _atom_site_label
 _atom_site_symmetry_multiplicity
 _atom_site_fract_x
 _atom_site_fract_y
 _atom_site_fract_z
 _atom_site_occupancy
  C  C0  1  0.45838697  0.23853265  0.43134082  1
  C  C1  1  0.95834866  0.26140539  0.06867811  1
  C  C2  1  0.53644524  0.75902940  0.57060481  1
  C  C3  1  0.03641256  0.74104952  0.92945109  1
  N  N4  1  0.55802652  0.25013783  0.58145946  1
  N  N5  1  0.05798633  0.24989911  0.91855493  1
  N  N6  1  0.43164286  0.75337944  0.42376776  1
  N  N7  1  0.93162986  0.74661072  0.07629968  1
  H  H8  1  0.53404113  0.25142932  0.32321198  1
  H  H9  1  0.40146173  0.13802084  0.42919442  1
  H  H10  1  0.36752810  0.31869995  0.43458746  1
  H  H11  1  0.64328712  0.17343878  0.58805497  1
  H  H12  1  0.61839349  0.34269252  0.58769438  1
  H  H13  1  0.49113441  0.24284100  0.68896334  1
  H  H14  1  0.03402247  0.24851637  0.17679922  1
  H  H15  1  0.86754943  0.18118921  0.06539831  1
  H  H16  1  0.90135231  0.36188682  0.07087383  1
  H  H17  1  0.11839785  0.15736770  0.91226672  1
  H  H18  1  0.14320855  0.32663111  0.91201559  1
  H  H19  1  0.99108634  0.25721266  0.81105341  1
  H  H20  1  0.46368598  0.74488965  0.68071508  1
  H  H21  1  0.62588959  0.67811597  0.56097425  1
  H  H22  1  0.59462194  0.85894145  0.57494680  1
  H  H23  1  0.34591686  0.82974073  0.42559894  1
  H  H24  1  0.37205055  0.66075122  0.41478975  1
  H  H25  1  0.49390727  0.76459715  0.31379902  1
  H  H26  1  0.96362226  0.75514538  0.81934926  1
  H  H27  1  0.12577485  0.82202935  0.93908479  1
  H  H28  1  0.09469203  0.64118235  0.92509335  1
  H  H29  1  0.87195570  0.83919929  0.08531097  1
  H  H30  1  0.84596925  0.67019513  0.07447186  1
  H  H31  1  0.99392178  0.73542267  0.18626216  1
  Cu  Cu32  1  0.62279253  0.00502220  0.01646952  1
  Cu  Cu33  1  0.12285377  0.49492450  0.48338310  1
  In  In34  1  0.01024056  0.00107988  0.49254981  1
  In  In35  1  0.51026575  0.49890963  0.00738724  1
  Br  Br36  1  0.47194115  0.21525549  0.99181301  1
  Br  Br37  1  0.18705939  0.99106082  0.22609862  1
  Br  Br38  1  0.73242626  0.99644856  0.30175284  1
  Br  Br39  1  0.97192740  0.28473495  0.50816143  1
  Br  Br40  1  0.25373610  0.00092834  0.69638241  1
  Br  Br41  1  0.79914668  0.01003609  0.76850422  1
  Br  Br42  1  0.48640305  0.78522049  0.00895927  1
  Br  Br43  1  0.68701797  0.50894630  0.27390644  1
  Br  Br44  1  0.23243073  0.50350039  0.19813722  1
  Br  Br45  1  0.98647411  0.71475746  0.49105994  1
  Br  Br46  1  0.29916591  0.48998635  0.73144207  1
  Br  Br47  1  0.75379234  0.49908614  0.80362295  1
