# generated using pymatgen
data_YCuH12C2(Br3N)2
_symmetry_space_group_name_H-M   'P 1'
_cell_length_a   8.32003268
_cell_length_b   9.96103292
_cell_length_c   8.26243316
_cell_angle_alpha   90.21351916
_cell_angle_beta   89.98849023
_cell_angle_gamma   90.00067602
_symmetry_Int_Tables_number   1
_chemical_formula_structural   YCuH12C2(Br3N)2
_chemical_formula_sum   'Y2 Cu2 H24 C4 Br12 N4'
_cell_volume   684.75362896
_cell_formula_units_Z   2
loop_
 _symmetry_equiv_pos_site_id
 _symmetry_equiv_pos_as_xyz
  1  'x, y, z'
loop_
 _atom_site_type_symbol
 _atom_site_label
 _atom_site_symmetry_multiplicity
 _atom_site_fract_x
 _atom_site_fract_y
 _atom_site_fract_z
 _atom_site_occupancy
  C  C0  1  0.46499828  0.24966341  0.43448100  1
  C  C1  1  0.96608448  0.25049603  0.06542491  1
  C  C2  1  0.52704730  0.74952323  0.56671774  1
  C  C3  1  0.02813194  0.75036585  0.93357588  1
  N  N4  1  0.55633529  0.24816456  0.58858355  1
  N  N5  1  0.05659530  0.25174613  0.91079872  1
  N  N6  1  0.43326458  0.75384942  0.41414435  1
  N  N7  1  0.93372227  0.74621466  0.08581914  1
  H  H8  1  0.54987871  0.25188504  0.33387496  1
  H  H9  1  0.39034464  0.15954156  0.42762807  1
  H  H10  1  0.38906191  0.33927310  0.43244234  1
  H  H11  1  0.63030207  0.16463461  0.59839564  1
  H  H12  1  0.62951280  0.33188237  0.60251767  1
  H  H13  1  0.48099274  0.24580706  0.68859030  1
  H  H14  1  0.05150715  0.24825669  0.16553319  1
  H  H15  1  0.89000756  0.16097054  0.06802787  1
  H  H16  1  0.89162470  0.34071465  0.07259286  1
  H  H17  1  0.12957095  0.16793267  0.89649411  1
  H  H18  1  0.13067604  0.33518632  0.90036521  1
  H  H19  1  0.98072081  0.25410325  0.81124309  1
  H  H20  1  0.44339081  0.74915985  0.66845898  1
  H  H21  1  0.60115610  0.65884733  0.56685244  1
  H  H22  1  0.60357701  0.83851021  0.57330123  1
  H  H23  1  0.36291435  0.83966841  0.40447862  1
  H  H24  1  0.35601617  0.67258518  0.40333863  1
  H  H25  1  0.50655179  0.75167264  0.31266054  1
  H  H26  1  0.94490212  0.75075456  0.83151639  1
  H  H27  1  0.10240361  0.84094128  0.93365226  1
  H  H28  1  0.10454254  0.66128696  0.92737245  1
  H  H29  1  0.85653501  0.82754115  0.09621615  1
  H  H30  1  0.86326428  0.66045220  0.09527989  1
  H  H31  1  0.00662745  0.74840124  0.18755803  1
  Cu  Cu32  1  0.62096790  0.00611580  0.01856763  1
  Cu  Cu33  1  0.12076069  0.49402061  0.48210889  1
  Y  Y34  1  0.00595475  0.99917590  0.49728614  1
  Y  Y35  1  0.50618842  0.50079618  0.00304343  1
  Br  Br36  1  0.47502852  0.21968323  0.00112393  1
  Br  Br37  1  0.19482276  0.98728900  0.22967804  1
  Br  Br38  1  0.72190885  0.99237813  0.30006599  1
  Br  Br39  1  0.97500334  0.28029523  0.49866820  1
  Br  Br40  1  0.26430820  0.00835213  0.69890148  1
  Br  Br41  1  0.79123161  0.01180994  0.76997773  1
  Br  Br42  1  0.49461807  0.78140131  0.99882514  1
  Br  Br43  1  0.69494211  0.51260080  0.27060180  1
  Br  Br44  1  0.22219726  0.50782209  0.20052152  1
  Br  Br45  1  0.99419970  0.71858080  0.50134669  1
  Br  Br46  1  0.29122103  0.48809624  0.73042331  1
  Br  Br47  1  0.76440977  0.49162873  0.80122049  1
