# generated using pymatgen
data_CuAsH12C2(Br3N)2
_symmetry_space_group_name_H-M   'P 1'
_cell_length_a   8.05435199
_cell_length_b   10.07092352
_cell_length_c   8.27655158
_cell_angle_alpha   90.66924766
_cell_angle_beta   90.01601429
_cell_angle_gamma   90.09907112
_symmetry_Int_Tables_number   1
_chemical_formula_structural   CuAsH12C2(Br3N)2
_chemical_formula_sum   'Cu2 As2 H24 C4 Br12 N4'
_cell_volume   671.30368732
_cell_formula_units_Z   2
loop_
 _symmetry_equiv_pos_site_id
 _symmetry_equiv_pos_as_xyz
  1  'x, y, z'
loop_
 _atom_site_type_symbol
 _atom_site_label
 _atom_site_symmetry_multiplicity
 _atom_site_fract_x
 _atom_site_fract_y
 _atom_site_fract_z
 _atom_site_occupancy
  C  C0  1  0.47762063  0.24732015  0.43584472  1
  C  C1  1  0.97649970  0.24364813  0.06195156  1
  C  C2  1  0.52048997  0.75004767  0.56665831  1
  C  C3  1  0.01879107  0.76114486  0.93630188  1
  N  N4  1  0.54852523  0.25611008  0.60063188  1
  N  N5  1  0.04785080  0.25563501  0.89790170  1
  N  N6  1  0.44000474  0.74385571  0.40590928  1
  N  N7  1  0.94126726  0.74633974  0.09725134  1
  H  H8  1  0.57864212  0.23820154  0.34854960  1
  H  H9  1  0.39644911  0.16048869  0.42798742  1
  H  H10  1  0.40607619  0.33754663  0.41267085  1
  H  H11  1  0.61398371  0.17065336  0.63249808  1
  H  H12  1  0.63124576  0.33436461  0.61315008  1
  H  H13  1  0.45787042  0.27093712  0.68777745  1
  H  H14  1  0.07757499  0.23554228  0.14915407  1
  H  H15  1  0.89847035  0.15459302  0.06512405  1
  H  H16  1  0.90166353  0.33150833  0.08910287  1
  H  H17  1  0.11859271  0.17342564  0.86510016  1
  H  H18  1  0.12488236  0.33817834  0.88634610  1
  H  H19  1  0.95741538  0.26408625  0.80960458  1
  H  H20  1  0.42417125  0.75791139  0.65902427  1
  H  H21  1  0.59312361  0.65966312  0.58406904  1
  H  H22  1  0.60168819  0.83708296  0.57196234  1
  H  H23  1  0.37241035  0.82903279  0.38059087  1
  H  H24  1  0.35845503  0.66423198  0.39434945  1
  H  H25  1  0.52605064  0.73352619  0.31383816  1
  H  H26  1  0.92062677  0.77328758  0.84670471  1
  H  H27  1  0.09958564  0.84852380  0.93862504  1
  H  H28  1  0.09167763  0.67219319  0.90838761  1
  H  H29  1  0.87251974  0.82946230  0.13290683  1
  H  H30  1  0.86124362  0.66571376  0.10116699  1
  H  H31  1  0.02909329  0.73029556  0.18617560  1
  Cu  Cu32  1  0.62964989  0.02050466  0.01663228  1
  Cu  Cu33  1  0.14143284  0.46365243  0.47476330  1
  As  As34  1  0.01302058  0.98944268  0.49673466  1
  As  As35  1  0.51377855  0.50688525  0.00454207  1
  Br  Br36  1  0.46794247  0.22584057  0.00742716  1
  Br  Br37  1  0.20007168  0.98685955  0.25449136  1
  Br  Br38  1  0.71963387  0.98055657  0.28749002  1
  Br  Br39  1  0.96139215  0.27465373  0.49185285  1
  Br  Br40  1  0.24951898  0.01137558  0.69373477  1
  Br  Br41  1  0.77129353  0.01524992  0.76131109  1
  Br  Br42  1  0.50227597  0.76483011  0.99466917  1
  Br  Br43  1  0.69265413  0.50716595  0.25137581  1
  Br  Br44  1  0.21341583  0.51348036  0.20342690  1
  Br  Br45  1  0.00322515  0.73701451  0.50994017  1
  Br  Br46  1  0.27899284  0.49237328  0.72913906  1
  Br  Br47  1  0.75716349  0.49564133  0.81544903  1
