# generated using pymatgen
data_GaCuH12C2(Br3N)2
_symmetry_space_group_name_H-M   'P 1'
_cell_length_a   8.01647233
_cell_length_b   9.91234059
_cell_length_c   8.93592765
_cell_angle_alpha   87.78183263
_cell_angle_beta   90.38219031
_cell_angle_gamma   89.89418626
_symmetry_Int_Tables_number   1
_chemical_formula_structural   GaCuH12C2(Br3N)2
_chemical_formula_sum   'Ga2 Cu2 H24 C4 Br12 N4'
_cell_volume   709.51730175
_cell_formula_units_Z   2
loop_
 _symmetry_equiv_pos_site_id
 _symmetry_equiv_pos_as_xyz
  1  'x, y, z'
loop_
 _atom_site_type_symbol
 _atom_site_label
 _atom_site_symmetry_multiplicity
 _atom_site_fract_x
 _atom_site_fract_y
 _atom_site_fract_z
 _atom_site_occupancy
  C  C0  1  0.48032039  0.22199787  0.42025131  1
  C  C1  1  0.98599956  0.27334228  0.06560829  1
  C  C2  1  0.51601911  0.77140192  0.56539900  1
  C  C3  1  0.01952963  0.72214026  0.91851160  1
  N  N4  1  0.54018518  0.23563539  0.57626283  1
  N  N5  1  0.05801713  0.27147596  0.91301522  1
  N  N6  1  0.44611268  0.77397216  0.41096635  1
  N  N7  1  0.95612106  0.73502448  0.07284600  1
  H  H8  1  0.58720199  0.20651169  0.34745199  1
  H  H9  1  0.39428758  0.13651399  0.41538939  1
  H  H10  1  0.41310263  0.31458803  0.38670655  1
  H  H11  1  0.59534455  0.14865257  0.62175895  1
  H  H12  1  0.62822345  0.31281315  0.58649344  1
  H  H13  1  0.44203271  0.26284697  0.64422300  1
  H  H14  1  0.08633150  0.25776721  0.14775121  1
  H  H15  1  0.89510301  0.19141185  0.07777508  1
  H  H16  1  0.92461616  0.37061124  0.07970277  1
  H  H17  1  0.11077063  0.17843393  0.89142766  1
  H  H18  1  0.15178228  0.34218833  0.89513395  1
  H  H19  1  0.96679656  0.29390918  0.83234157  1
  H  H20  1  0.41442392  0.75464453  0.64473360  1
  H  H21  1  0.60620361  0.68853434  0.57724709  1
  H  H22  1  0.57784878  0.86762276  0.58413208  1
  H  H23  1  0.35275559  0.84555597  0.39308282  1
  H  H24  1  0.39315819  0.68197840  0.38525126  1
  H  H25  1  0.53829332  0.79782046  0.33276922  1
  H  H26  1  0.91421893  0.70882836  0.84215914  1
  H  H27  1  0.08884207  0.81410615  0.88833707  1
  H  H28  1  0.10427833  0.63552611  0.91525376  1
  H  H29  1  0.86871469  0.81302198  0.08119118  1
  H  H30  1  0.89913246  0.64827207  0.11575930  1
  H  H31  1  0.05291127  0.76021869  0.14419219  1
  Cu  Cu32  1  0.47371647  0.99484587  0.13117493  1
  Cu  Cu33  1  0.02154391  0.48932227  0.63200380  1
  Ga  Ga34  1  0.00503420  0.00553530  0.60416225  1
  Ga  Ga35  1  0.49516663  0.50570445  0.10432165  1
  Br  Br36  1  0.49461413  0.28789118  0.00512227  1
  Br  Br37  1  0.19769892  0.98120662  0.16794107  1
  Br  Br38  1  0.73647529  0.97259350  0.21854166  1
  Br  Br39  1  0.98087700  0.20739597  0.46010904  1
  Br  Br40  1  0.26521314  0.01983724  0.73754766  1
  Br  Br41  1  0.78817599  0.01459481  0.78756758  1
  Br  Br42  1  0.51690146  0.70676493  0.95926416  1
  Br  Br43  1  0.71470494  0.51428035  0.28764333  1
  Br  Br44  1  0.23699088  0.52196742  0.23752905  1
  Br  Br45  1  0.00405644  0.78870682  0.50332504  1
  Br  Br46  1  0.29850611  0.48114312  0.66742674  1
  Br  Br47  1  0.76166925  0.47092016  0.72349149  1
