# generated using pymatgen
data_ZnH12PbC2(Br3N)2
_symmetry_space_group_name_H-M   'P 1'
_cell_length_a   7.73397114
_cell_length_b   11.97780418
_cell_length_c   8.10041730
_cell_angle_alpha   90.40854569
_cell_angle_beta   90.02064310
_cell_angle_gamma   90.00168190
_symmetry_Int_Tables_number   1
_chemical_formula_structural   ZnH12PbC2(Br3N)2
_chemical_formula_sum   'Zn2 H24 Pb2 C4 Br12 N4'
_cell_volume   750.37106546
_cell_formula_units_Z   2
loop_
 _symmetry_equiv_pos_site_id
 _symmetry_equiv_pos_as_xyz
  1  'x, y, z'
loop_
 _atom_site_type_symbol
 _atom_site_label
 _atom_site_symmetry_multiplicity
 _atom_site_fract_x
 _atom_site_fract_y
 _atom_site_fract_z
 _atom_site_occupancy
  C  C0  1  0.38597775  0.24857126  0.38063632  1
  C  C1  1  0.88513395  0.24529657  0.11928443  1
  C  C2  1  0.61519114  0.74515630  0.61903113  1
  C  C3  1  0.11369063  0.74856081  0.88034975  1
  N  N4  1  0.53384156  0.26195160  0.49532266  1
  N  N5  1  0.03284936  0.25648844  0.00397308  1
  N  N6  1  0.46723034  0.75652163  0.50394161  1
  N  N7  1  0.96608678  0.76188803  0.99524935  1
  H  H8  1  0.43425403  0.24544967  0.25352730  1
  H  H9  1  0.32114423  0.17018404  0.41022824  1
  H  H10  1  0.29790386  0.31917964  0.39648003  1
  H  H11  1  0.61908503  0.19572562  0.48154470  1
  H  H12  1  0.60170355  0.33567801  0.47104042  1
  H  H13  1  0.49570596  0.26316239  0.61937658  1
  H  H14  1  0.93438041  0.24575931  0.24620869  1
  H  H15  1  0.81577370  0.16779591  0.09164993  1
  H  H16  1  0.79964316  0.31709286  0.10291547  1
  H  H17  1  0.12058511  0.19147555  0.01524454  1
  H  H18  1  0.09857396  0.33122302  0.02972248  1
  H  H19  1  0.99368956  0.25721803  0.88058429  1
  H  H20  1  0.56624086  0.74558088  0.74602446  1
  H  H21  1  0.68433071  0.66761566  0.59118918  1
  H  H22  1  0.70079000  0.81689033  0.60260674  1
  H  H23  1  0.40167579  0.83128857  0.52986007  1
  H  H24  1  0.37940789  0.69156454  0.51525366  1
  H  H25  1  0.50612913  0.75728285  0.38050593  1
  H  H26  1  0.06512174  0.74547169  0.75330546  1
  H  H27  1  0.20178530  0.81917787  0.89610348  1
  H  H28  1  0.17860854  0.67016902  0.90976791  1
  H  H29  1  0.89814727  0.83560696  0.97109128  1
  H  H30  1  0.88084514  0.69564475  0.98157016  1
  H  H31  1  0.00448963  0.76308963  0.11925620  1
  Zn  Zn32  1  0.54887013  0.94791919  0.08291871  1
  Zn  Zn33  1  0.95110198  0.44786169  0.58292829  1
  Pb  Pb34  1  0.05107428  0.99320480  0.42540569  1
  Pb  Pb35  1  0.44897685  0.49322400  0.92555567  1
  Br  Br36  1  0.46376087  0.26173200  0.90156949  1
  Br  Br37  1  0.24117465  0.00981788  0.10648828  1
  Br  Br38  1  0.65842099  0.01022950  0.35144641  1
  Br  Br39  1  0.96457045  0.24387452  0.59795786  1
  Br  Br40  1  0.30963698  0.98858729  0.66483557  1
  Br  Br41  1  0.75562253  0.99282399  0.87323512  1
  Br  Br42  1  0.53531045  0.74392735  0.09787186  1
  Br  Br43  1  0.74438586  0.49278217  0.37306685  1
  Br  Br44  1  0.19044166  0.48861334  0.16481732  1
  Br  Br45  1  0.03635178  0.76171574  0.40142864  1
  Br  Br46  1  0.25877168  0.50984338  0.60656414  1
  Br  Br47  1  0.84153655  0.51015998  0.85136117  1
