# generated using pymatgen
data_ZnHgH12C2(Br3N)2
_symmetry_space_group_name_H-M   'P 1'
_cell_length_a   6.96049631
_cell_length_b   12.38384212
_cell_length_c   8.26731758
_cell_angle_alpha   91.01724380
_cell_angle_beta   90.00197044
_cell_angle_gamma   89.99713259
_symmetry_Int_Tables_number   1
_chemical_formula_structural   ZnHgH12C2(Br3N)2
_chemical_formula_sum   'Zn2 Hg2 H24 C4 Br12 N4'
_cell_volume   712.51134373
_cell_formula_units_Z   2
loop_
 _symmetry_equiv_pos_site_id
 _symmetry_equiv_pos_as_xyz
  1  'x, y, z'
loop_
 _atom_site_type_symbol
 _atom_site_label
 _atom_site_symmetry_multiplicity
 _atom_site_fract_x
 _atom_site_fract_y
 _atom_site_fract_z
 _atom_site_occupancy
  C  C0  1  0.38966558  0.24627288  0.34738205  1
  C  C1  1  0.89332875  0.24475698  0.15128444  1
  C  C2  1  0.60641188  0.74461280  0.65145120  1
  C  C3  1  0.11055332  0.74634647  0.84753798  1
  N  N4  1  0.50571405  0.26742315  0.49446755  1
  N  N5  1  0.00967360  0.26683231  0.00561078  1
  N  N6  1  0.49023542  0.76699285  0.50578496  1
  N  N7  1  0.99439468  0.76726514  0.99462748  1
  H  H8  1  0.48355655  0.24567838  0.24118861  1
  H  H9  1  0.31934801  0.16783414  0.35809289  1
  H  H10  1  0.28418483  0.31130855  0.33697982  1
  H  H11  1  0.61903677  0.21377480  0.50540202  1
  H  H12  1  0.56639601  0.34469008  0.48941411  1
  H  H13  1  0.42661201  0.26166870  0.60063631  1
  H  H14  1  0.98657599  0.24547236  0.25784748  1
  H  H15  1  0.82441128  0.16596876  0.13602762  1
  H  H16  1  0.78643535  0.30908561  0.16480860  1
  H  H17  1  0.12526792  0.21450513  0.99207010  1
  H  H18  1  0.06603372  0.34483482  0.01444967  1
  H  H19  1  0.93085649  0.26033391  0.89883864  1
  H  H20  1  0.51316902  0.74552155  0.75801208  1
  H  H21  1  0.67476424  0.66566871  0.63615181  1
  H  H22  1  0.71376870  0.80868382  0.66500910  1
  H  H23  1  0.43427735  0.84509005  0.51471638  1
  H  H24  1  0.37434511  0.71488647  0.49212260  1
  H  H25  1  0.56905648  0.76041732  0.39902777  1
  H  H26  1  0.01663804  0.74556196  0.74135004  1
  H  H27  1  0.21562161  0.81158327  0.83712757  1
  H  H28  1  0.18135778  0.66803874  0.85825021  1
  H  H29  1  0.93335622  0.84445181  0.98960929  1
  H  H30  1  0.88136566  0.71343690  0.00550007  1
  H  H31  1  0.07353019  0.76160936  0.10079876  1
  Zn  Zn32  1  0.56024280  0.94022693  0.10151727  1
  Zn  Zn33  1  0.93975727  0.44028560  0.60157302  1
  Hg  Hg34  1  0.06351642  0.94804559  0.40417792  1
  Hg  Hg35  1  0.43646667  0.44798103  0.90424972  1
  Br  Br36  1  0.47838464  0.23704407  0.88881231  1
  Br  Br37  1  0.22974163  0.01050194  0.11031621  1
  Br  Br38  1  0.69691408  0.01238774  0.36368294  1
  Br  Br39  1  0.97054099  0.24703465  0.60963128  1
  Br  Br40  1  0.28675112  0.00233918  0.63863253  1
  Br  Br41  1  0.76576610  0.99215836  0.88708204  1
  Br  Br42  1  0.52947490  0.74698978  0.10982465  1
  Br  Br43  1  0.73423680  0.49232383  0.38717697  1
  Br  Br44  1  0.21326375  0.50219137  0.13875696  1
  Br  Br45  1  0.02167120  0.73709315  0.38901057  1
  Br  Br46  1  0.27024177  0.51053702  0.61045146  1
  Br  Br47  1  0.80311098  0.51233026  0.86382275  1
