# generated using pymatgen
data_ZnH12PtC2(Br3N)2
_symmetry_space_group_name_H-M   'P 1'
_cell_length_a   7.42069504
_cell_length_b   11.10857212
_cell_length_c   8.25528561
_cell_angle_alpha   93.48944209
_cell_angle_beta   89.99359842
_cell_angle_gamma   89.99889741
_symmetry_Int_Tables_number   1
_chemical_formula_structural   ZnH12PtC2(Br3N)2
_chemical_formula_sum   'Zn2 H24 Pt2 C4 Br12 N4'
_cell_volume   679.24900017
_cell_formula_units_Z   2
loop_
 _symmetry_equiv_pos_site_id
 _symmetry_equiv_pos_as_xyz
  1  'x, y, z'
loop_
 _atom_site_type_symbol
 _atom_site_label
 _atom_site_symmetry_multiplicity
 _atom_site_fract_x
 _atom_site_fract_y
 _atom_site_fract_z
 _atom_site_occupancy
  C  C0  1  0.40823579  0.25005026  0.37491760  1
  C  C1  1  0.93419275  0.24397543  0.12115208  1
  C  C2  1  0.56567664  0.74392201  0.62130492  1
  C  C3  1  0.09186536  0.75005836  0.87500992  1
  N  N4  1  0.51267849  0.26715159  0.52725543  1
  N  N5  1  0.04265120  0.24501792  0.97053992  1
  N  N6  1  0.45731311  0.74506868  0.47067156  1
  N  N7  1  0.98739108  0.76710692  0.02735806  1
  H  H8  1  0.50210857  0.24717729  0.27250972  1
  H  H9  1  0.33357294  0.16544987  0.37684015  1
  H  H10  1  0.31740475  0.32693174  0.36679507  1
  H  H11  1  0.60826120  0.19995588  0.53629229  1
  H  H12  1  0.58253225  0.34817926  0.52762027  1
  H  H13  1  0.43484832  0.26868644  0.63179875  1
  H  H14  1  0.02511135  0.25326419  0.22533719  1
  H  H15  1  0.86152476  0.15844683  0.12165532  1
  H  H16  1  0.83953883  0.31944544  0.12410713  1
  H  H17  1  0.13529771  0.17478288  0.96459575  1
  H  H18  1  0.11543722  0.32514967  0.97049868  1
  H  H19  1  0.96487376  0.23675734  0.86591969  1
  H  H20  1  0.47470788  0.75325766  0.72546923  1
  H  H21  1  0.63820582  0.65833900  0.62180203  1
  H  H22  1  0.66044950  0.81932418  0.62430818  1
  H  H23  1  0.38463988  0.82525105  0.47064780  1
  H  H24  1  0.36457308  0.67489274  0.46467750  1
  H  H25  1  0.53514462  0.73677904  0.36607133  1
  H  H26  1  0.99801020  0.74718384  0.77260820  1
  H  H27  1  0.18265001  0.82696556  0.86691012  1
  H  H28  1  0.16657722  0.66547282  0.87689875  1
  H  H29  1  0.91745847  0.84810638  0.02774167  1
  H  H30  1  0.89188174  0.69986639  0.03639118  1
  H  H31  1  0.06520938  0.76866531  0.13189536  1
  Zn  Zn32  1  0.55964832  0.96361668  0.07144199  1
  Zn  Zn33  1  0.94035577  0.46368297  0.57143114  1
  Pt  Pt34  1  0.98648738  0.00085163  0.48316936  1
  Pt  Pt35  1  0.51349883  0.50085746  0.98316031  1
  Br  Br36  1  0.49144918  0.28364482  0.92509240  1
  Br  Br37  1  0.25519377  0.00516329  0.11589052  1
  Br  Br38  1  0.68253061  0.99931689  0.35653522  1
  Br  Br39  1  0.95485881  0.21997914  0.57062474  1
  Br  Br40  1  0.27020404  0.00303916  0.63323130  1
  Br  Br41  1  0.76452888  0.99405002  0.86527773  1
  Br  Br42  1  0.54514549  0.71995810  0.07076931  1
  Br  Br43  1  0.73552407  0.49411089  0.36526739  1
  Br  Br44  1  0.22974011  0.50300015  0.13320578  1
  Br  Br45  1  0.00853294  0.78362730  0.42520148  1
  Br  Br46  1  0.24481557  0.50514783  0.61586338  1
  Br  Br47  1  0.81748608  0.49934997  0.85653370  1
