# generated using pymatgen
data_BH12AuC2(I3N)2
_symmetry_space_group_name_H-M   'P 1'
_cell_length_a   8.57139638
_cell_length_b   10.33493659
_cell_length_c   9.51871960
_cell_angle_alpha   91.22893362
_cell_angle_beta   90.57914576
_cell_angle_gamma   88.10770179
_symmetry_Int_Tables_number   1
_chemical_formula_structural   BH12AuC2(I3N)2
_chemical_formula_sum   'B2 H24 Au2 C4 I12 N4'
_cell_volume   842.52326963
_cell_formula_units_Z   2
loop_
 _symmetry_equiv_pos_site_id
 _symmetry_equiv_pos_as_xyz
  1  'x, y, z'
loop_
 _atom_site_type_symbol
 _atom_site_label
 _atom_site_symmetry_multiplicity
 _atom_site_fract_x
 _atom_site_fract_y
 _atom_site_fract_z
 _atom_site_occupancy
  C  C0  1  0.47152622  0.26226094  0.43316411  1
  C  C1  1  0.93660678  0.22686396  0.07649296  1
  C  C2  1  0.56057252  0.73875855  0.58335595  1
  C  C3  1  0.06398001  0.77818363  0.92498583  1
  N  N4  1  0.56604235  0.24013290  0.56292516  1
  N  N5  1  0.03319626  0.22569259  0.94774106  1
  N  N6  1  0.45840150  0.76189115  0.45829349  1
  N  N7  1  0.94398146  0.77865146  0.03674640  1
  H  H8  1  0.55063842  0.26860250  0.34431513  1
  H  H9  1  0.39463782  0.18042224  0.41833198  1
  H  H10  1  0.40072460  0.35172605  0.44689246  1
  H  H11  1  0.62666548  0.15117615  0.55987102  1
  H  H12  1  0.64929173  0.30957985  0.57822878  1
  H  H13  1  0.49558889  0.24194308  0.65083426  1
  H  H14  1  0.01251553  0.23014663  0.16935942  1
  H  H15  1  0.86800233  0.13937751  0.07555057  1
  H  H16  1  0.85884220  0.31311345  0.07494436  1
  H  H17  1  0.11689998  0.15152551  0.94616364  1
  H  H18  1  0.09156892  0.31157459  0.93604954  1
  H  H19  1  0.96251022  0.21039241  0.85946981  1
  H  H20  1  0.48645627  0.71879644  0.67279085  1
  H  H21  1  0.64156414  0.65704192  0.56091126  1
  H  H22  1  0.62594749  0.82654613  0.60477128  1
  H  H23  1  0.38159449  0.84031316  0.48076061  1
  H  H24  1  0.39064392  0.68382394  0.43237354  1
  H  H25  1  0.52529867  0.78464708  0.37251553  1
  H  H26  1  0.00432325  0.77452592  0.82288084  1
  H  H27  1  0.12935678  0.86703259  0.93393148  1
  H  H28  1  0.14173979  0.69287257  0.93738524  1
  H  H29  1  0.86586307  0.85683938  0.02628453  1
  H  H30  1  0.88072518  0.69403851  0.02780927  1
  H  H31  1  0.99251466  0.78270566  0.13658408  1
  B  B32  1  0.39741069  0.98757810  0.09137824  1
  B  B33  1  0.98042201  0.50998942  0.35885153  1
  Au  Au34  1  0.97034659  0.99957849  0.53909201  1
  Au  Au35  1  0.54617332  0.47715172  0.83738756  1
  I  I36  1  0.46315604  0.17434326  0.02829139  1
  I  I37  1  0.20952775  0.98220538  0.23882629  1
  I  I38  1  0.75288732  0.98167292  0.33160850  1
  I  I39  1  0.98072357  0.32087963  0.47126168  1
  I  I40  1  0.25583528  0.00918186  0.65868874  1
  I  I41  1  0.77551586  0.02152017  0.78644644  1
  I  I42  1  0.49528159  0.80717816  0.01441647  1
  I  I43  1  0.73676491  0.53991296  0.26171425  1
  I  I44  1  0.17074875  0.50113309  0.19206596  1
  I  I45  1  0.03430105  0.68097297  0.49733289  1
  I  I46  1  0.26348262  0.44473566  0.76186088  1
  I  I47  1  0.83922546  0.51084605  0.83835933  1
