# generated using pymatgen
data_HfZnH12C2(Br3N)2
_symmetry_space_group_name_H-M   'P 1'
_cell_length_a   7.93232027
_cell_length_b   11.75676031
_cell_length_c   8.17977306
_cell_angle_alpha   99.71153552
_cell_angle_beta   89.99492167
_cell_angle_gamma   89.99678694
_symmetry_Int_Tables_number   1
_chemical_formula_structural   HfZnH12C2(Br3N)2
_chemical_formula_sum   'Hf2 Zn2 H24 C4 Br12 N4'
_cell_volume   751.90069521
_cell_formula_units_Z   2
loop_
 _symmetry_equiv_pos_site_id
 _symmetry_equiv_pos_as_xyz
  1  'x, y, z'
loop_
 _atom_site_type_symbol
 _atom_site_label
 _atom_site_symmetry_multiplicity
 _atom_site_fract_x
 _atom_site_fract_y
 _atom_site_fract_z
 _atom_site_occupancy
  C  C0  1  0.42456971  0.24507043  0.39407990  1
  C  C1  1  0.91629001  0.24752884  0.10686475  1
  C  C2  1  0.58381375  0.74726430  0.60690798  1
  C  C3  1  0.07547277  0.74530766  0.89424517  1
  N  N4  1  0.55830305  0.26309144  0.52319887  1
  N  N5  1  0.04571277  0.24612907  0.97519261  1
  N  N6  1  0.45444036  0.74618793  0.47528302  1
  N  N7  1  0.94186926  0.76299052  0.02353906  1
  H  H8  1  0.48419032  0.23615435  0.27187591  1
  H  H9  1  0.35595548  0.16626242  0.40595743  1
  H  H10  1  0.33988798  0.31971902  0.41290908  1
  H  H11  1  0.64252506  0.19432371  0.50642210  1
  H  H12  1  0.62506992  0.33804867  0.51902110  1
  H  H13  1  0.50930343  0.26951242  0.64282047  1
  H  H14  1  0.98020945  0.25622111  0.22693240  1
  H  H15  1  0.84520204  0.16658176  0.08336992  1
  H  H16  1  0.83300388  0.32128461  0.10406751  1
  H  H17  1  0.12872143  0.17821093  0.97247117  1
  H  H18  1  0.11494738  0.32272488  0.99613826  1
  H  H19  1  0.99363367  0.23855632  0.85680710  1
  H  H20  1  0.51982808  0.75544366  0.72689885  1
  H  H21  1  0.65511481  0.66641162  0.58286348  1
  H  H22  1  0.66692015  0.82118526  0.60470480  1
  H  H23  1  0.38514751  0.82276397  0.49660279  1
  H  H24  1  0.37148184  0.67821099  0.47217424  1
  H  H25  1  0.50655958  0.73892390  0.35694634  1
  H  H26  1  0.01574801  0.73692870  0.77215860  1
  H  H27  1  0.16031212  0.81986126  0.91355259  1
  H  H28  1  0.14395036  0.66631113  0.90540958  1
  H  H29  1  0.87511025  0.83803150  0.01993118  1
  H  H30  1  0.85763017  0.69423630  0.00643797  1
  H  H31  1  0.99097926  0.76905539  0.14306096  1
  Zn  Zn32  1  0.50913860  0.99850652  0.00106406  1
  Zn  Zn33  1  0.99044574  0.49827848  0.50078764  1
  Hf  Hf34  1  0.00463510  0.99842400  0.49891120  1
  Hf  Hf35  1  0.49513307  0.49848742  0.99869309  1
  Br  Br36  1  0.47731825  0.27311930  0.93020718  1
  Br  Br37  1  0.13531675  0.01006731  0.21030337  1
  Br  Br38  1  0.70328016  0.99021135  0.37119059  1
  Br  Br39  1  0.98678720  0.22421560  0.56641604  1
  Br  Br40  1  0.30389741  0.00796149  0.63360663  1
  Br  Br41  1  0.87586317  0.98828858  0.78956313  1
  Br  Br42  1  0.51306808  0.72427287  0.06635867  1
  Br  Br43  1  0.62375203  0.48820828  0.28935316  1
  Br  Br44  1  0.19584741  0.50802370  0.13337244  1
  Br  Br45  1  0.02275900  0.77305625  0.43050603  1
  Br  Br46  1  0.36435437  0.51001638  0.71011090  1
  Br  Br47  1  0.79652354  0.49040666  0.87100729  1
