# generated using pymatgen
data_BaZnH12C2(Br3N)2
_symmetry_space_group_name_H-M   'P 1'
_cell_length_a   8.07125879
_cell_length_b   11.55463249
_cell_length_c   7.81037681
_cell_angle_alpha   87.66387529
_cell_angle_beta   90.00159744
_cell_angle_gamma   90.00973086
_symmetry_Int_Tables_number   1
_chemical_formula_structural   BaZnH12C2(Br3N)2
_chemical_formula_sum   'Ba2 Zn2 H24 C4 Br12 N4'
_cell_volume   727.79370437
_cell_formula_units_Z   2
loop_
 _symmetry_equiv_pos_site_id
 _symmetry_equiv_pos_as_xyz
  1  'x, y, z'
loop_
 _atom_site_type_symbol
 _atom_site_label
 _atom_site_symmetry_multiplicity
 _atom_site_fract_x
 _atom_site_fract_y
 _atom_site_fract_z
 _atom_site_occupancy
  C  C0  1  0.39479052  0.25064764  0.41232266  1
  C  C1  1  0.89575496  0.24946778  0.08865196  1
  C  C2  1  0.60520677  0.74935666  0.58768996  1
  C  C3  1  0.10425001  0.75053354  0.91135931  1
  N  N4  1  0.54387350  0.24876975  0.52278219  1
  N  N5  1  0.04424935  0.25119465  0.97737220  1
  N  N6  1  0.45612270  0.75123438  0.47723198  1
  N  N7  1  0.95575634  0.74880310  0.02264017  1
  H  H8  1  0.43387934  0.25062790  0.27813270  1
  H  H9  1  0.32396452  0.17177674  0.44161100  1
  H  H10  1  0.32091252  0.32720980  0.43754825  1
  H  H11  1  0.61441782  0.17652770  0.49641931  1
  H  H12  1  0.61621436  0.32227835  0.49751039  1
  H  H13  1  0.51388497  0.24433108  0.65320761  1
  H  H14  1  0.93563762  0.24947713  0.22261250  1
  H  H15  1  0.82157078  0.17293078  0.06391424  1
  H  H16  1  0.82495144  0.32838033  0.05985759  1
  H  H17  1  0.11657083  0.17769528  0.00233647  1
  H  H18  1  0.11503516  0.32344688  0.00325370  1
  H  H19  1  0.01360509  0.25560951  0.84708073  1
  H  H20  1  0.56611851  0.74937833  0.72188052  1
  H  H21  1  0.67908220  0.67279273  0.56246588  1
  H  H22  1  0.67603474  0.82822558  0.55839993  1
  H  H23  1  0.38557921  0.82347748  0.50359485  1
  H  H24  1  0.38378221  0.67772681  0.50250277  1
  H  H25  1  0.48611157  0.75567383  0.34680529  1
  H  H26  1  0.06436684  0.75052624  0.77739907  1
  H  H27  1  0.17843426  0.82706985  0.93610032  1
  H  H28  1  0.17505389  0.67162039  0.94014993  1
  H  H29  1  0.88343164  0.82230148  0.99767770  1
  H  H30  1  0.88497296  0.67654988  0.99675783  1
  H  H31  1  0.98640089  0.74438830  0.15293136  1
  Zn  Zn32  1  0.50000301  0.00000941  0.00001492  1
  Zn  Zn33  1  0.99999814  0.50000215  0.49999843  1
  Ba  Ba34  1  0.00000240  0.00000227  0.50001038  1
  Ba  Ba35  1  0.49999999  0.50000592  1.00000027  1
  Br  Br36  1  0.47505817  0.22973246  0.94130058  1
  Br  Br37  1  0.21193454  0.00618969  0.15562140  1
  Br  Br38  1  0.65497757  0.01826852  0.29962480  1
  Br  Br39  1  0.97456117  0.27026277  0.55917080  1
  Br  Br40  1  0.34502544  0.98173875  0.70039450  1
  Br  Br41  1  0.78806895  0.99381331  0.84439695  1
  Br  Br42  1  0.52494682  0.77027538  0.05871611  1
  Br  Br43  1  0.71204088  0.49365553  0.34420641  1
  Br  Br44  1  0.15514766  0.48178674  0.20048937  1
  Br  Br45  1  0.02543473  0.72974155  0.44083995  1
  Br  Br46  1  0.28795574  0.50634732  0.65579716  1
  Br  Br47  1  0.84485100  0.51821662  0.79951417  1
