# generated using pymatgen
data_ZnSnH12C2(Br3N)2
_symmetry_space_group_name_H-M   'P 1'
_cell_length_a   7.80793983
_cell_length_b   11.96691537
_cell_length_c   8.07606746
_cell_angle_alpha   89.98046342
_cell_angle_beta   90.00968128
_cell_angle_gamma   90.00042820
_symmetry_Int_Tables_number   1
_chemical_formula_structural   ZnSnH12C2(Br3N)2
_chemical_formula_sum   'Zn2 Sn2 H24 C4 Br12 N4'
_cell_volume   754.60309876
_cell_formula_units_Z   2
loop_
 _symmetry_equiv_pos_site_id
 _symmetry_equiv_pos_as_xyz
  1  'x, y, z'
loop_
 _atom_site_type_symbol
 _atom_site_label
 _atom_site_symmetry_multiplicity
 _atom_site_fract_x
 _atom_site_fract_y
 _atom_site_fract_z
 _atom_site_occupancy
  C  C0  1  0.39065791  0.24941734  0.38215847  1
  C  C1  1  0.88553818  0.24429362  0.11858983  1
  C  C2  1  0.61458905  0.74421593  0.61853208  1
  C  C3  1  0.10919680  0.74947039  0.88205202  1
  N  N4  1  0.53959771  0.26253745  0.49422818  1
  N  N5  1  0.03282614  0.25434364  0.00374331  1
  N  N6  1  0.46720776  0.75437570  0.50377617  1
  N  N7  1  0.96037455  0.76248925  0.99423809  1
  H  H8  1  0.43619424  0.24619711  0.25397082  1
  H  H9  1  0.32642204  0.17111928  0.41380459  1
  H  H10  1  0.30403940  0.32022950  0.39912375  1
  H  H11  1  0.62259319  0.19540397  0.48077489  1
  H  H12  1  0.60777282  0.33572373  0.46736212  1
  H  H13  1  0.50339682  0.26511683  0.61885998  1
  H  H14  1  0.93341154  0.24426904  0.24621986  1
  H  H15  1  0.81627092  0.16697968  0.09135197  1
  H  H16  1  0.80207982  0.31670182  0.10032002  1
  H  H17  1  0.11876778  0.18880472  0.01729973  1
  H  H18  1  0.09880388  0.32875340  0.02765779  1
  H  H19  1  0.99496610  0.25470920  0.87938969  1
  H  H20  1  0.56683719  0.74417453  0.74619026  1
  H  H21  1  0.68373283  0.66687372  0.59119897  1
  H  H22  1  0.69812573  0.81658404  0.60025901  1
  H  H23  1  0.40132988  0.82881284  0.52776608  1
  H  H24  1  0.38120114  0.68887651  0.51733238  1
  H  H25  1  0.50496100  0.75475509  0.37940185  1
  H  H26  1  0.06351845  0.74627557  0.75389436  1
  H  H27  1  0.19576383  0.82031550  0.89899982  1
  H  H28  1  0.17355305  0.67118880  0.91357946  1
  H  H29  1  0.89210270  0.83565558  0.96745716  1
  H  H30  1  0.87743441  0.69532180  0.98080624  1
  H  H31  1  0.99670228  0.76505943  0.11884893  1
  Zn  Zn32  1  0.55123518  0.94777579  0.08862404  1
  Zn  Zn33  1  0.94877016  0.44775395  0.58860731  1
  Sn  Sn34  1  0.05766305  0.99308875  0.42233000  1
  Sn  Sn35  1  0.44236154  0.49308571  0.92240679  1
  Br  Br36  1  0.45980622  0.26894538  0.90163779  1
  Br  Br37  1  0.24561286  0.01007745  0.10776114  1
  Br  Br38  1  0.65940012  0.00891864  0.35601010  1
  Br  Br39  1  0.96503499  0.24449901  0.59924561  1
  Br  Br40  1  0.30111222  0.98748024  0.65820591  1
  Br  Br41  1  0.74782841  0.99475131  0.87178765  1
  Br  Br42  1  0.53490173  0.74452326  0.09925070  1
  Br  Br43  1  0.75218807  0.49474697  0.37169730  1
  Br  Br44  1  0.19891792  0.48747045  0.15819319  1
  Br  Br45  1  0.04024333  0.76894610  0.40160914  1
  Br  Br46  1  0.25438303  0.51007791  0.60779252  1
  Br  Br47  1  0.84059575  0.50889235  0.85594951  1
