# generated using pymatgen
data_ZnInH12C2(Br3N)2
_symmetry_space_group_name_H-M   'P 1'
_cell_length_a   8.08265313
_cell_length_b   11.10763613
_cell_length_c   7.72492367
_cell_angle_alpha   89.08558014
_cell_angle_beta   90.31930282
_cell_angle_gamma   89.79476021
_symmetry_Int_Tables_number   1
_chemical_formula_structural   ZnInH12C2(Br3N)2
_chemical_formula_sum   'Zn2 In2 H24 C4 Br12 N4'
_cell_volume   693.43346871
_cell_formula_units_Z   2
loop_
 _symmetry_equiv_pos_site_id
 _symmetry_equiv_pos_as_xyz
  1  'x, y, z'
loop_
 _atom_site_type_symbol
 _atom_site_label
 _atom_site_symmetry_multiplicity
 _atom_site_fract_x
 _atom_site_fract_y
 _atom_site_fract_z
 _atom_site_occupancy
  C  C0  1  0.43119531  0.24729970  0.43337048  1
  C  C1  1  0.93655154  0.24784363  0.06912920  1
  C  C2  1  0.56880284  0.75270455  0.56671218  1
  C  C3  1  0.06345239  0.75216175  0.93092957  1
  N  N4  1  0.58467483  0.24224960  0.53888247  1
  N  N5  1  0.08826193  0.24815221  0.96233172  1
  N  N6  1  0.41531898  0.75774522  0.46120749  1
  N  N7  1  0.91173954  0.75185634  0.03772650  1
  H  H8  1  0.46554252  0.24840528  0.29674180  1
  H  H9  1  0.35816636  0.16716250  0.46281156  1
  H  H10  1  0.36334867  0.32915256  0.46494034  1
  H  H11  1  0.64993418  0.16428056  0.51323401  1
  H  H12  1  0.65965849  0.31502439  0.50851964  1
  H  H13  1  0.56008512  0.24381575  0.67141368  1
  H  H14  1  0.97368656  0.24626243  0.20535467  1
  H  H15  1  0.86342879  0.16825567  0.03914231  1
  H  H16  1  0.86633194  0.33002012  0.04013386  1
  H  H17  1  0.15748850  0.17044532  0.98596473  1
  H  H18  1  0.16159110  0.32110758  0.99447950  1
  H  H19  1  0.06168342  0.25488790  0.83068285  1
  H  H20  1  0.53446815  0.75160918  0.70333731  1
  H  H21  1  0.63665019  0.67084702  0.53515905  1
  H  H22  1  0.64182977  0.83283953  0.53723735  1
  H  H23  1  0.35006011  0.83571925  0.48683925  1
  H  H24  1  0.34032925  0.68497664  0.49160160  1
  H  H25  1  0.43989801  0.75616714  0.32867648  1
  H  H26  1  0.02631588  0.75371285  0.79470626  1
  H  H27  1  0.13657122  0.83175409  0.96089736  1
  H  H28  1  0.13367671  0.66998777  0.95991885  1
  H  H29  1  0.84250779  0.82955714  0.01407041  1
  H  H30  1  0.83842997  0.67888588  0.00554877  1
  H  H31  1  0.93831376  0.74515586  0.16937914  1
  Zn  Zn32  1  0.50000333  0.00001252  0.00003166  1
  Zn  Zn33  1  -0.00003802  0.49988252  0.49797267  1
  In  In34  1  1.00000118  1.00000675  0.49999528  1
  In  In35  1  0.50018888  0.50005035  0.99966106  1
  Br  Br36  1  0.50465344  0.26009632  0.95931599  1
  Br  Br37  1  0.23551970  0.00466627  0.18596908  1
  Br  Br38  1  0.68059879  0.00304846  0.27292616  1
  Br  Br39  1  0.00043843  0.28717352  0.54013601  1
  Br  Br40  1  0.31941206  0.99696331  0.72714263  1
  Br  Br41  1  0.76446954  0.99534366  0.81409658  1
  Br  Br42  1  0.49527412  0.73988873  0.04097377  1
  Br  Br43  1  0.69624143  0.48576249  0.29252709  1
  Br  Br44  1  0.21768140  0.48454637  0.19489668  1
  Br  Br45  1  0.99954139  0.71290352  0.46008891  1
  Br  Br46  1  0.30390412  0.51421988  0.70792824  1
  Br  Br47  1  0.78214010  0.51546818  0.80555441  1
