# generated using pymatgen
data_ZnCdH12C2(Br3N)2
_symmetry_space_group_name_H-M   'P 1'
_cell_length_a   7.09461543
_cell_length_b   12.39328513
_cell_length_c   8.14129374
_cell_angle_alpha   90.88532973
_cell_angle_beta   89.99553073
_cell_angle_gamma   89.99881177
_symmetry_Int_Tables_number   1
_chemical_formula_structural   ZnCdH12C2(Br3N)2
_chemical_formula_sum   'Zn2 Cd2 H24 C4 Br12 N4'
_cell_volume   715.74261459
_cell_formula_units_Z   2
loop_
 _symmetry_equiv_pos_site_id
 _symmetry_equiv_pos_as_xyz
  1  'x, y, z'
loop_
 _atom_site_type_symbol
 _atom_site_label
 _atom_site_symmetry_multiplicity
 _atom_site_fract_x
 _atom_site_fract_y
 _atom_site_fract_z
 _atom_site_occupancy
  C  C0  1  0.38441228  0.24767667  0.35757975  1
  C  C1  1  0.89070569  0.24555758  0.14179523  1
  C  C2  1  0.60913616  0.74547421  0.64193416  1
  C  C3  1  0.11574171  0.74773439  0.85770414  1
  N  N4  1  0.53021163  0.26362523  0.48539207  1
  N  N5  1  0.03698926  0.26530532  0.01625232  1
  N  N6  1  0.46296857  0.76539974  0.51638023  1
  N  N7  1  0.96985245  0.76354587  0.98549593  1
  H  H8  1  0.45254061  0.24361534  0.23683283  1
  H  H9  1  0.31003343  0.17231370  0.38184493  1
  H  H10  1  0.28762051  0.31634661  0.36313577  1
  H  H11  1  0.63250297  0.20405074  0.47942920  1
  H  H12  1  0.59853166  0.33794493  0.47037307  1
  H  H13  1  0.47662383  0.26080175  0.60513101  1
  H  H14  1  0.95762647  0.24262570  0.26298844  1
  H  H15  1  0.82012327  0.16926368  0.11247999  1
  H  H16  1  0.79027044  0.31251681  0.13962509  1
  H  H17  1  0.14266867  0.20750785  0.01683900  1
  H  H18  1  0.10104035  0.34052046  0.03759635  1
  H  H19  1  0.98329266  0.26387374  0.89643254  1
  H  H20  1  0.54215645  0.74252842  0.76310807  1
  H  H21  1  0.67957315  0.66914721  0.61254188  1
  H  H22  1  0.70972155  0.81236416  0.63986917  1
  H  H23  1  0.39906368  0.84065374  0.53777474  1
  H  H24  1  0.35714090  0.70768233  0.51687614  1
  H  H25  1  0.51672177  0.76396433  0.39657722  1
  H  H26  1  0.04767417  0.74368964  0.73694065  1
  H  H27  1  0.21240686  0.81645946  0.86335377  1
  H  H28  1  0.19024517  0.67240316  0.88191078  1
  H  H29  1  0.90139716  0.83782734  0.97051066  1
  H  H30  1  0.86768688  0.70390266  0.97945487  1
  H  H31  1  0.02338427  0.76072554  0.10524648  1
  Zn  Zn32  1  0.55740304  0.94248886  0.10610802  1
  Zn  Zn33  1  0.94261720  0.44251498  0.60599860  1
  Cd  Cd34  1  0.05680396  0.95138158  0.38968415  1
  Cd  Cd35  1  0.44315652  0.45135769  0.88958072  1
  Br  Br36  1  0.47993529  0.24317331  0.88270667  1
  Br  Br37  1  0.22927174  0.01248180  0.10918102  1
  Br  Br38  1  0.69770230  0.01360196  0.37011309  1
  Br  Br39  1  0.97427547  0.25009946  0.61788024  1
  Br  Br40  1  0.26781971  0.00068946  0.63422126  1
  Br  Br41  1  0.75590809  0.99260046  0.88561029  1
  Br  Br42  1  0.52577524  0.75007511  0.11804143  1
  Br  Br43  1  0.74411256  0.49267063  0.38555725  1
  Br  Br44  1  0.23213250  0.50061947  0.13416466  1
  Br  Br45  1  0.02003634  0.74319765  0.38285368  1
  Br  Br46  1  0.27072829  0.51250888  0.60911900  1
  Br  Br47  1  0.80228089  0.51356864  0.87007004  1
