# generated using pymatgen
data_ZnH12PdC2(Br3N)2
_symmetry_space_group_name_H-M   'P 1'
_cell_length_a   7.38876916
_cell_length_b   11.13215040
_cell_length_c   8.24454682
_cell_angle_alpha   93.38907868
_cell_angle_beta   89.99280996
_cell_angle_gamma   89.99900970
_symmetry_Int_Tables_number   1
_chemical_formula_structural   ZnH12PdC2(Br3N)2
_chemical_formula_sum   'Zn2 H24 Pd2 C4 Br12 N4'
_cell_volume   676.95180768
_cell_formula_units_Z   2
loop_
 _symmetry_equiv_pos_site_id
 _symmetry_equiv_pos_as_xyz
  1  'x, y, z'
loop_
 _atom_site_type_symbol
 _atom_site_label
 _atom_site_symmetry_multiplicity
 _atom_site_fract_x
 _atom_site_fract_y
 _atom_site_fract_z
 _atom_site_occupancy
  C  C0  1  0.41623304  0.24942531  0.37802131  1
  C  C1  1  0.93050688  0.24424197  0.11916706  1
  C  C2  1  0.56933818  0.74417509  0.61931612  1
  C  C3  1  0.08387877  0.74945316  0.87810890  1
  N  N4  1  0.52036925  0.26507495  0.53117444  1
  N  N5  1  0.03791836  0.24832445  0.96799082  1
  N  N6  1  0.46204027  0.74838788  0.46811766  1
  N  N7  1  0.97971369  0.76502715  0.03127954  1
  H  H8  1  0.51109310  0.24723219  0.27598691  1
  H  H9  1  0.34145058  0.16486119  0.37846328  1
  H  H10  1  0.32498509  0.32619770  0.37045804  1
  H  H11  1  0.61629622  0.19787706  0.53925082  1
  H  H12  1  0.59013858  0.34598022  0.53349170  1
  H  H13  1  0.44172174  0.26543909  0.63556538  1
  H  H14  1  0.02312077  0.25069203  0.22271446  1
  H  H15  1  0.85617275  0.15934209  0.11670630  1
  H  H16  1  0.83678828  0.32028416  0.12599945  1
  H  H17  1  0.13118604  0.17857536  0.95885018  1
  H  H18  1  0.11050188  0.32861667  0.97025178  1
  H  H19  1  0.95872494  0.24215690  0.86398878  1
  H  H20  1  0.47666326  0.75065812  0.72283884  1
  H  H21  1  0.64353132  0.65921833  0.61682589  1
  H  H22  1  0.66318080  0.82014745  0.62622283  1
  H  H23  1  0.38958185  0.82873466  0.47041428  1
  H  H24  1  0.36866842  0.67870577  0.45891090  1
  H  H25  1  0.54129547  0.74219667  0.36413937  1
  H  H26  1  0.98903162  0.74725581  0.77608700  1
  H  H27  1  0.17505969  0.82626296  0.87057561  1
  H  H28  1  0.15873154  0.66491227  0.87850209  1
  H  H29  1  0.90983942  0.84589393  0.03363050  1
  H  H30  1  0.88388185  0.69777024  0.03934823  1
  H  H31  1  0.05835510  0.76541846  0.13565701  1
  Zn  Zn32  1  0.55146520  0.95749728  0.06653328  1
  Zn  Zn33  1  0.94854096  0.45754501  0.56652234  1
  Pd  Pd34  1  0.99364357  0.00032178  0.48188206  1
  Pd  Pd35  1  0.50634897  0.50032529  0.98186879  1
  Br  Br36  1  0.48729156  0.28273376  0.93021562  1
  Br  Br37  1  0.24814305  0.00698373  0.11799696  1
  Br  Br38  1  0.68897236  0.99898554  0.34736265  1
  Br  Br39  1  0.96474374  0.22194715  0.56740341  1
  Br  Br40  1  0.27549296  0.00148822  0.63761463  1
  Br  Br41  1  0.75835614  0.99579197  0.86203080  1
  Br  Br42  1  0.53528002  0.72192546  0.06754308  1
  Br  Br43  1  0.74168871  0.49584629  0.36203351  1
  Br  Br44  1  0.22444991  0.50144659  0.13757783  1
  Br  Br45  1  0.01267691  0.78271994  0.43033507  1
  Br  Br46  1  0.25186718  0.50696586  0.61795038  1
  Br  Br47  1  0.81106371  0.49901513  0.84737075  1
