# generated using pymatgen
data_ZrZnH12C2(Br3N)2
_symmetry_space_group_name_H-M   'P 1'
_cell_length_a   8.02770140
_cell_length_b   11.79590450
_cell_length_c   8.11518916
_cell_angle_alpha   99.28689100
_cell_angle_beta   89.99608920
_cell_angle_gamma   90.00595763
_symmetry_Int_Tables_number   1
_chemical_formula_structural   ZrZnH12C2(Br3N)2
_chemical_formula_sum   'Zr2 Zn2 H24 C4 Br12 N4'
_cell_volume   758.38725050
_cell_formula_units_Z   2
loop_
 _symmetry_equiv_pos_site_id
 _symmetry_equiv_pos_as_xyz
  1  'x, y, z'
loop_
 _atom_site_type_symbol
 _atom_site_label
 _atom_site_symmetry_multiplicity
 _atom_site_fract_x
 _atom_site_fract_y
 _atom_site_fract_z
 _atom_site_occupancy
  C  C0  1  0.41788936  0.24598430  0.40036218  1
  C  C1  1  0.91187219  0.24670156  0.10069133  1
  C  C2  1  0.58801643  0.74677686  0.60082879  1
  C  C3  1  0.08230010  0.74627934  0.90043523  1
  N  N4  1  0.56252706  0.26436588  0.51607884  1
  N  N5  1  0.05375456  0.24416140  0.98241789  1
  N  N6  1  0.44615072  0.74416704  0.48254194  1
  N  N7  1  0.93759367  0.76434403  0.01610865  1
  H  H8  1  0.46403389  0.23517622  0.27176460  1
  H  H9  1  0.35240875  0.16849972  0.42217153  1
  H  H10  1  0.33576432  0.32092088  0.42526979  1
  H  H11  1  0.64332337  0.19457064  0.49440105  1
  H  H12  1  0.62747286  0.33767358  0.50034136  1
  H  H13  1  0.52575795  0.27351063  0.64098535  1
  H  H14  1  0.96142102  0.25618699  0.22791484  1
  H  H15  1  0.84214551  0.16621261  0.07130503  1
  H  H16  1  0.83257670  0.31994835  0.08698536  1
  H  H17  1  0.13322559  0.17649436  0.99090917  1
  H  H18  1  0.12177235  0.32047285  0.00853457  1
  H  H19  1  0.01462379  0.23577116  0.85824750  1
  H  H20  1  0.53846040  0.75639033  0.72806435  1
  H  H21  1  0.65769043  0.66626569  0.57158455  1
  H  H22  1  0.66736875  0.81998492  0.58698042  1
  H  H23  1  0.37814187  0.82047467  0.50858163  1
  H  H24  1  0.36666809  0.67650191  0.49111206  1
  H  H25  1  0.48529745  0.73571512  0.35837155  1
  H  H26  1  0.03620742  0.73563490  0.77183174  1
  H  H27  1  0.16428087  0.82128725  0.92561092  1
  H  H28  1  0.14791358  0.66879955  0.92200043  1
  H  H29  1  0.87244494  0.83758629  0.00053121  1
  H  H30  1  0.85699120  0.69442870  0.99425575  1
  H  H31  1  0.97431775  0.77341144  0.14102593  1
  Zn  Zn32  1  0.50596478  0.99838987  0.00138961  1
  Zn  Zn33  1  0.99392998  0.49847320  0.50145644  1
  Zr  Zr34  1  0.00253195  0.99856931  0.49835532  1
  Zr  Zr35  1  0.49740140  0.49856231  0.99838322  1
  Br  Br36  1  0.48019076  0.27206351  0.92439134  1
  Br  Br37  1  0.13496779  0.01417665  0.20664510  1
  Br  Br38  1  0.70181027  0.99429750  0.36849080  1
  Br  Br39  1  0.98652338  0.22567767  0.57217637  1
  Br  Br40  1  0.30041279  0.00465190  0.63720310  1
  Br  Br41  1  0.87130232  0.98485245  0.79223978  1
  Br  Br42  1  0.51354009  0.72565562  0.07227492  1
  Br  Br43  1  0.62858121  0.48482976  0.29228380  1
  Br  Br44  1  0.19948840  0.50466633  0.13717450  1
  Br  Br45  1  0.01977269  0.77206892  0.42439654  1
  Br  Br46  1  0.36501604  0.51411209  0.70664022  1
  Br  Br47  1  0.79817690  0.49433201  0.86855000  1
