# generated using pymatgen
data_SrZnH12C2(Br3N)2
_symmetry_space_group_name_H-M   'P 1'
_cell_length_a   7.92227651
_cell_length_b   11.30831709
_cell_length_c   7.73144179
_cell_angle_alpha   88.24197674
_cell_angle_beta   90.00459455
_cell_angle_gamma   90.01184772
_symmetry_Int_Tables_number   1
_chemical_formula_structural   SrZnH12C2(Br3N)2
_chemical_formula_sum   'Sr2 Zn2 H24 C4 Br12 N4'
_cell_volume   692.31538946
_cell_formula_units_Z   2
loop_
 _symmetry_equiv_pos_site_id
 _symmetry_equiv_pos_as_xyz
  1  'x, y, z'
loop_
 _atom_site_type_symbol
 _atom_site_label
 _atom_site_symmetry_multiplicity
 _atom_site_fract_x
 _atom_site_fract_y
 _atom_site_fract_z
 _atom_site_occupancy
  C  C0  1  0.39562638  0.25016789  0.41246188  1
  C  C1  1  0.89660037  0.24993636  0.08840219  1
  C  C2  1  0.60437088  0.74983671  0.58755085  1
  C  C3  1  0.10340513  0.75006578  0.91160876  1
  N  N4  1  0.54678483  0.24888857  0.52447221  1
  N  N5  1  0.04717794  0.25109843  0.97561290  1
  N  N6  1  0.45321136  0.75111689  0.47554202  1
  N  N7  1  0.95282823  0.74890017  0.02439897  1
  H  H8  1  0.43596063  0.25049739  0.27719131  1
  H  H9  1  0.32320969  0.16987907  0.44092602  1
  H  H10  1  0.32057814  0.32849375  0.43824306  1
  H  H11  1  0.61925549  0.17510338  0.49868773  1
  H  H12  1  0.62016292  0.32371932  0.49884215  1
  H  H13  1  0.51576481  0.24564007  0.65590784  1
  H  H14  1  0.93768335  0.24962072  0.22344961  1
  H  H15  1  0.82126273  0.17163736  0.06310512  1
  H  H16  1  0.82418242  0.33026945  0.06036527  1
  H  H17  1  0.12054433  0.17624717  0.00096615  1
  H  H18  1  0.11988357  0.32486488  0.00095877  1
  H  H19  1  0.01551808  0.25430851  0.84432875  1
  H  H20  1  0.56403781  0.74950916  0.72282192  1
  H  H21  1  0.67941707  0.67150983  0.56177063  1
  H  H22  1  0.67678937  0.83012450  0.55908480  1
  H  H23  1  0.38074183  0.82490234  0.50132696  1
  H  H24  1  0.37983295  0.67628621  0.50117242  1
  H  H25  1  0.48423092  0.75436502  0.34410608  1
  H  H26  1  0.06232133  0.75038343  0.77656155  1
  H  H27  1  0.17874215  0.82836453  0.93690874  1
  H  H28  1  0.17582381  0.66973249  0.93964170  1
  H  H29  1  0.87945889  0.82375023  0.99904745  1
  H  H30  1  0.88012529  0.67513244  0.99905248  1
  H  H31  1  0.98448859  0.74569006  0.15568316  1
  Zn  Zn32  1  0.50000351  0.00000295  0.00001595  1
  Zn  Zn33  1  0.99999648  0.50000140  0.49999775  1
  Sr  Sr34  1  0.00000238  0.00000195  0.50001019  1
  Sr  Sr35  1  0.49999952  0.50000414  0.99999942  1
  Br  Br36  1  0.47622764  0.23553747  0.94585078  1
  Br  Br37  1  0.21041310  0.00517637  0.16917339  1
  Br  Br38  1  0.66854067  0.01347459  0.29938294  1
  Br  Br39  1  0.97563852  0.26446297  0.55460907  1
  Br  Br40  1  0.33146192  0.98653205  0.70063602  1
  Br  Br41  1  0.78959020  0.99482574  0.83084461  1
  Br  Br42  1  0.52377753  0.76446852  0.05416565  1
  Br  Br43  1  0.71048395  0.49472169  0.33070141  1
  Br  Br44  1  0.16868551  0.48658142  0.20068051  1
  Br  Br45  1  0.02435744  0.73554103  0.44540195  1
  Br  Br46  1  0.28951106  0.50528186  0.66930304  1
  Br  Br47  1  0.83131300  0.51342200  0.79932448  1
