# generated using pymatgen
data_ZnGeH12C2(Br3N)2
_symmetry_space_group_name_H-M   'P 1'
_cell_length_a   7.80161978
_cell_length_b   11.78248193
_cell_length_c   8.01247241
_cell_angle_alpha   90.28624493
_cell_angle_beta   89.64399223
_cell_angle_gamma   89.93890506
_symmetry_Int_Tables_number   1
_chemical_formula_structural   ZnGeH12C2(Br3N)2
_chemical_formula_sum   'Zn2 Ge2 H24 C4 Br12 N4'
_cell_volume   736.50219551
_cell_formula_units_Z   2
loop_
 _symmetry_equiv_pos_site_id
 _symmetry_equiv_pos_as_xyz
  1  'x, y, z'
loop_
 _atom_site_type_symbol
 _atom_site_label
 _atom_site_symmetry_multiplicity
 _atom_site_fract_x
 _atom_site_fract_y
 _atom_site_fract_z
 _atom_site_occupancy
  C  C0  1  0.40629812  0.25044957  0.38552019  1
  C  C1  1  0.89760064  0.24287614  0.11447709  1
  C  C2  1  0.60208584  0.74331041  0.61544257  1
  C  C3  1  0.09398235  0.75074607  0.88733395  1
  N  N4  1  0.55315949  0.26309640  0.50048879  1
  N  N5  1  0.04139036  0.25345493  0.99373990  1
  N  N6  1  0.45956733  0.75283183  0.49477913  1
  N  N7  1  0.94692154  0.76438415  0.00368614  1
  H  H8  1  0.45500280  0.24742683  0.25722466  1
  H  H9  1  0.34054835  0.17126023  0.41536091  1
  H  H10  1  0.32000397  0.32275765  0.40228042  1
  H  H11  1  0.63578318  0.19441012  0.48828448  1
  H  H12  1  0.62287901  0.33663440  0.47380308  1
  H  H13  1  0.51459556  0.26683829  0.62551376  1
  H  H14  1  0.94974441  0.24302639  0.24104370  1
  H  H15  1  0.82879481  0.16391665  0.08902225  1
  H  H16  1  0.81286580  0.31602456  0.09913562  1
  H  H17  1  0.12925699  0.18806299  0.00695232  1
  H  H18  1  0.10623577  0.32960469  0.01428675  1
  H  H19  1  0.00080891  0.25169558  0.86945837  1
  H  H20  1  0.54856516  0.74397324  0.74209507  1
  H  H21  1  0.67198291  0.66444241  0.59080670  1
  H  H22  1  0.68628176  0.81660910  0.59923359  1
  H  H23  1  0.39366661  0.82881823  0.51477295  1
  H  H24  1  0.37229513  0.68714508  0.50854131  1
  H  H25  1  0.50135528  0.75085172  0.37041448  1
  H  H26  1  0.04544791  0.74705944  0.75960513  1
  H  H27  1  0.18027717  0.82300515  0.90229304  1
  H  H28  1  0.15960539  0.67161372  0.91752095  1
  H  H29  1  0.87766595  0.83802678  0.97682701  1
  H  H30  1  0.86379634  0.69606535  0.99281502  1
  H  H31  1  0.98530249  0.76839556  0.12827445  1
  Zn  Zn32  1  0.54834719  0.94606170  0.09370445  1
  Zn  Zn33  1  0.94986084  0.44644127  0.59457610  1
  Ge  Ge34  1  0.06221254  0.98882660  0.42318653  1
  Ge  Ge35  1  0.43711547  0.48915554  0.91889398  1
  Br  Br36  1  0.46614355  0.27662416  0.90717852  1
  Br  Br37  1  0.24264880  0.01054724  0.12368772  1
  Br  Br38  1  0.67193458  0.00520206  0.35646892  1
  Br  Br39  1  0.97440748  0.24048322  0.59016826  1
  Br  Br40  1  0.28493387  0.99030595  0.64842647  1
  Br  Br41  1  0.73216579  0.99726671  0.86636105  1
  Br  Br42  1  0.52385358  0.74017031  0.09017210  1
  Br  Br43  1  0.76750315  0.49755864  0.36819997  1
  Br  Br44  1  0.21538395  0.49002729  0.14769125  1
  Br  Br45  1  0.03553928  0.77626929  0.40960131  1
  Br  Br46  1  0.25581558  0.50996565  0.62149822  1
  Br  Br47  1  0.82839071  0.50635899  0.85944794  1
