# generated using pymatgen
data_ZnGaH12C2(Br3N)2
_symmetry_space_group_name_H-M   'P 1'
_cell_length_a   8.12592983
_cell_length_b   10.97807674
_cell_length_c   7.95266717
_cell_angle_alpha   88.13100729
_cell_angle_beta   84.10851395
_cell_angle_gamma   89.80812862
_symmetry_Int_Tables_number   1
_chemical_formula_structural   ZnGaH12C2(Br3N)2
_chemical_formula_sum   'Zn2 Ga2 H24 C4 Br12 N4'
_cell_volume   705.31163488
_cell_formula_units_Z   2
loop_
 _symmetry_equiv_pos_site_id
 _symmetry_equiv_pos_as_xyz
  1  'x, y, z'
loop_
 _atom_site_type_symbol
 _atom_site_label
 _atom_site_symmetry_multiplicity
 _atom_site_fract_x
 _atom_site_fract_y
 _atom_site_fract_z
 _atom_site_occupancy
  C  C0  1  0.42686756  0.24711081  0.42997099  1
  C  C1  1  0.94846389  0.24986287  0.07414033  1
  C  C2  1  0.56852398  0.75319714  0.56510882  1
  C  C3  1  0.05564052  0.75158797  0.93992526  1
  N  N4  1  0.57209369  0.22678111  0.52615911  1
  N  N5  1  0.09931680  0.24130843  0.95265525  1
  N  N6  1  0.43253944  0.77689673  0.45772277  1
  N  N7  1  0.91404938  0.76317166  0.07210204  1
  H  H8  1  0.46694856  0.23965159  0.29521214  1
  H  H9  1  0.33449643  0.17727177  0.46994344  1
  H  H10  1  0.37704180  0.33788382  0.45541430  1
  H  H11  1  0.62422871  0.14183612  0.49969697  1
  H  H12  1  0.66179968  0.29203647  0.48944929  1
  H  H13  1  0.54339358  0.23184741  0.65646122  1
  H  H14  1  0.98430318  0.23618166  0.20242547  1
  H  H15  1  0.86088981  0.17954516  0.04690682  1
  H  H16  1  0.89411819  0.34051854  0.06039986  1
  H  H17  1  0.15469934  0.15627675  0.96151396  1
  H  H18  1  0.18587913  0.30486045  0.98043272  1
  H  H19  1  0.07281108  0.25771701  0.82824419  1
  H  H20  1  0.52133717  0.76400033  0.69741157  1
  H  H21  1  0.61204297  0.66015833  0.54567835  1
  H  H22  1  0.66758042  0.81863216  0.52827840  1
  H  H23  1  0.38847007  0.86513561  0.47263286  1
  H  H24  1  0.33347746  0.71851565  0.49075146  1
  H  H25  1  0.46871377  0.76574427  0.32952913  1
  H  H26  1  0.01167722  0.76748000  0.81550012  1
  H  H27  1  0.14846974  0.81972390  0.96113885  1
  H  H28  1  0.10768915  0.65987759  0.94973463  1
  H  H29  1  0.86386539  0.85032389  0.07050000  1
  H  H30  1  0.81906821  0.70402081  0.05312042  1
  H  H31  1  0.94911455  0.74434055  0.19285427  1
  Zn  Zn32  1  0.46827335  0.95267554  0.94459140  1
  Zn  Zn33  1  0.88784586  0.50107663  0.51851814  1
  Ga  Ga34  1  0.97486329  0.99582015  0.49245220  1
  Ga  Ga35  1  0.46841936  0.48641279  0.93369133  1
  Br  Br36  1  0.52935138  0.27014547  0.94505540  1
  Br  Br37  1  0.27071705  0.00890711  0.18362810  1
  Br  Br38  1  0.72683657  0.99885631  0.30012411  1
  Br  Br39  1  0.99638977  0.29787258  0.55334872  1
  Br  Br40  1  0.30127002  0.99808934  0.71433683  1
  Br  Br41  1  0.75339568  0.99496369  0.82785146  1
  Br  Br42  1  0.49376353  0.73381421  0.03963032  1
  Br  Br43  1  0.69554481  0.48993828  0.31262892  1
  Br  Br44  1  0.25500298  0.47969816  0.16799822  1
  Br  Br45  1  0.02425120  0.69808510  0.46819149  1
  Br  Br46  1  0.31645548  0.51626259  0.69796091  1
  Br  Br47  1  0.76803252  0.53396377  0.82927402  1
