# generated using pymatgen
data_HfBH12C2(I3N)2
_symmetry_space_group_name_H-M   'P 1'
_cell_length_a   8.24912453
_cell_length_b   10.92519532
_cell_length_c   10.20034999
_cell_angle_alpha   97.42649192
_cell_angle_beta   92.04228955
_cell_angle_gamma   89.34956876
_symmetry_Int_Tables_number   1
_chemical_formula_structural   HfBH12C2(I3N)2
_chemical_formula_sum   'Hf2 B2 H24 C4 I12 N4'
_cell_volume   910.97757074
_cell_formula_units_Z   2
loop_
 _symmetry_equiv_pos_site_id
 _symmetry_equiv_pos_as_xyz
  1  'x, y, z'
loop_
 _atom_site_type_symbol
 _atom_site_label
 _atom_site_symmetry_multiplicity
 _atom_site_fract_x
 _atom_site_fract_y
 _atom_site_fract_z
 _atom_site_occupancy
  C  C0  1  0.48534312  0.19063401  0.48746239  1
  C  C1  1  0.96985944  0.21227357  0.97188202  1
  C  C2  1  0.42279424  0.76103467  0.39012167  1
  C  C3  1  0.10940378  0.73873858  0.01171078  1
  N  N4  1  0.56871819  0.23987139  0.61522727  1
  N  N5  1  0.09190508  0.27638525  0.90641111  1
  N  N6  1  0.39704545  0.72178981  0.24778752  1
  N  N7  1  0.07122450  0.72967442  0.15137770  1
  H  H8  1  0.52688608  0.24205565  0.40978461  1
  H  H9  1  0.51730055  0.09292225  0.46470505  1
  H  H10  1  0.35427187  0.20210549  0.49831233  1
  H  H11  1  0.69424002  0.24256695  0.60571583  1
  H  H12  1  0.52901108  0.32942812  0.64708138  1
  H  H13  1  0.54685746  0.18551309  0.68881957  1
  H  H14  1  0.01691050  0.16147117  0.05227450  1
  H  H15  1  0.90532257  0.14591550  0.89841074  1
  H  H16  1  0.87968029  0.27908342  0.01514168  1
  H  H17  1  0.16388581  0.21291925  0.85271106  1
  H  H18  1  0.16667487  0.32531742  0.97591490  1
  H  H19  1  0.12523063  0.47144213  0.79136609  1
  H  H20  1  0.33965482  0.71062113  0.44540125  1
  H  H21  1  0.54788852  0.74584079  0.42656715  1
  H  H22  1  0.39222308  0.85932648  0.41206908  1
  H  H23  1  0.11768506  0.91914721  0.40142887  1
  H  H24  1  0.44062176  0.63362336  0.22478320  1
  H  H25  1  0.46336330  0.77587272  0.19471924  1
  H  H26  1  0.00003390  0.75976644  0.95431885  1
  H  H27  1  0.20018184  0.81062531  0.00640941  1
  H  H28  1  0.15958589  0.65017494  0.96678865  1
  H  H29  1  0.01969574  0.81160955  0.19253515  1
  H  H30  1  0.85932479  0.70374340  0.32254946  1
  H  H31  1  0.18906278  0.72605672  0.20135428  1
  B  B32  1  0.45920289  0.04357398  0.04039808  1
  B  B33  1  0.16242043  0.53552154  0.71127292  1
  Hf  Hf34  1  0.98586218  0.01797808  0.50964952  1
  Hf  Hf35  1  0.91661390  0.57425954  0.20129721  1
  I  I36  1  0.52779592  0.21328253  0.97614809  1
  I  I37  1  0.28662646  0.04567906  0.19018442  1
  I  I38  1  0.82056457  0.02163346  0.26841780  1
  I  I39  1  0.00294692  0.27013928  0.55520000  1
  I  I40  1  0.23690390  0.97936949  0.68915585  1
  I  I41  1  0.73574943  0.93639553  0.64062036  1
  I  I42  1  0.56078636  0.87044120  0.96289453  1
  I  I43  1  0.68575579  0.45458489  0.32703050  1
  I  I44  1  0.18298698  0.43606603  0.24990681  1
  I  I45  1  0.98887900  0.64105537  0.61845045  1
  I  I46  1  0.41418426  0.55039397  0.67031120  1
  I  I47  1  0.76085772  0.54215410  0.95821602  1
