# generated using pymatgen
data_GaBiH12C2(Br3N)2
_symmetry_space_group_name_H-M   'P 1'
_cell_length_a   8.13365948
_cell_length_b   11.58035960
_cell_length_c   7.91063576
_cell_angle_alpha   91.45179271
_cell_angle_beta   90.00833655
_cell_angle_gamma   89.98049373
_symmetry_Int_Tables_number   1
_chemical_formula_structural   GaBiH12C2(Br3N)2
_chemical_formula_sum   'Ga2 Bi2 H24 C4 Br12 N4'
_cell_volume   744.86909943
_cell_formula_units_Z   2
loop_
 _symmetry_equiv_pos_site_id
 _symmetry_equiv_pos_as_xyz
  1  'x, y, z'
loop_
 _atom_site_type_symbol
 _atom_site_label
 _atom_site_symmetry_multiplicity
 _atom_site_fract_x
 _atom_site_fract_y
 _atom_site_fract_z
 _atom_site_occupancy
  C  C0  1  0.39453540  0.25039353  0.41331092  1
  C  C1  1  0.89560700  0.24981443  0.08771667  1
  C  C2  1  0.60546236  0.74961086  0.58670102  1
  C  C3  1  0.10439809  0.75018703  0.91229705  1
  N  N4  1  0.54246618  0.25089242  0.52287483  1
  N  N5  1  0.04293171  0.24912853  0.97729681  1
  N  N6  1  0.45753031  0.74911264  0.47713730  1
  N  N7  1  0.95707539  0.75086915  0.02271888  1
  H  H8  1  0.43407613  0.24902097  0.28105602  1
  H  H9  1  0.32280464  0.17310033  0.43849992  1
  H  H10  1  0.32261777  0.32824105  0.44123313  1
  H  H11  1  0.61310666  0.17766129  0.49676650  1
  H  H12  1  0.61392020  0.32293549  0.49867333  1
  H  H13  1  0.51239084  0.25222718  0.65124908  1
  H  H14  1  0.93594687  0.25122759  0.21972623  1
  H  H15  1  0.82347917  0.17201818  0.06034287  1
  H  H16  1  0.82379871  0.32716876  0.06289420  1
  H  H17  1  0.11443064  0.17702390  0.00118745  1
  H  H18  1  0.11373279  0.32229589  0.00297651  1
  H  H19  1  0.01215673  0.24776985  0.84909843  1
  H  H20  1  0.56592201  0.75098526  0.71895635  1
  H  H21  1  0.67737810  0.67176225  0.55878039  1
  H  H22  1  0.67719484  0.82690299  0.56151048  1
  H  H23  1  0.38689145  0.82234343  0.50324696  1
  H  H24  1  0.38607729  0.67706963  0.50133934  1
  H  H25  1  0.48760616  0.74777832  0.34876373  1
  H  H26  1  0.06405662  0.74877616  0.78028788  1
  H  H27  1  0.17652579  0.82798317  0.93967336  1
  H  H28  1  0.17620780  0.67283245  0.93711450  1
  H  H29  1  0.88557333  0.82297273  0.99883100  1
  H  H30  1  0.88627646  0.67770092  0.99703840  1
  H  H31  1  0.98785181  0.75222730  0.15091683  1
  Ga  Ga32  1  0.50000150  0.00000492  0.00000908  1
  Ga  Ga33  1  0.99999372  0.50000203  0.49999354  1
  Bi  Bi34  1  0.00000118  0.00000198  0.50000972  1
  Bi  Bi35  1  0.49999823  0.50000577  0.99999863  1
  Br  Br36  1  0.47299166  0.25394395  0.94153386  1
  Br  Br37  1  0.17674641  0.01580606  0.18533418  1
  Br  Br38  1  0.69044316  0.00918593  0.32522650  1
  Br  Br39  1  0.97238545  0.24600944  0.55901636  1
  Br  Br40  1  0.30956104  0.99081980  0.67479233  1
  Br  Br41  1  0.82325959  0.98419366  0.81468395  1
  Br  Br42  1  0.52701275  0.74606822  0.05847814  1
  Br  Br43  1  0.67657134  0.48407024  0.31474304  1
  Br  Br44  1  0.19046006  0.49096215  0.17466467  1
  Br  Br45  1  0.02761308  0.75399336  0.44100071  1
  Br  Br46  1  0.32341930  0.51593461  0.68525697  1
  Br  Br47  1  0.80953600  0.50904252  0.82533854  1
