# generated using pymatgen
data_TlGaH12C2(Br3N)2
_symmetry_space_group_name_H-M   'P 1'
_cell_length_a   8.04706623
_cell_length_b   11.44944548
_cell_length_c   7.80100708
_cell_angle_alpha   86.00303814
_cell_angle_beta   89.99838022
_cell_angle_gamma   90.03374223
_symmetry_Int_Tables_number   1
_chemical_formula_structural   TlGaH12C2(Br3N)2
_chemical_formula_sum   'Tl2 Ga2 H24 C4 Br12 N4'
_cell_volume   716.99317940
_cell_formula_units_Z   2
loop_
 _symmetry_equiv_pos_site_id
 _symmetry_equiv_pos_as_xyz
  1  'x, y, z'
loop_
 _atom_site_type_symbol
 _atom_site_label
 _atom_site_symmetry_multiplicity
 _atom_site_fract_x
 _atom_site_fract_y
 _atom_site_fract_z
 _atom_site_occupancy
  C  C0  1  0.39622016  0.24984628  0.41249106  1
  C  C1  1  0.89716350  0.25022579  0.08838385  1
  C  C2  1  0.60377664  0.75015833  0.58752174  1
  C  C3  1  0.10284217  0.74977627  0.91162750  1
  N  N4  1  0.54594093  0.24755645  0.52324133  1
  N  N5  1  0.04634741  0.25243822  0.97686154  1
  N  N6  1  0.45405500  0.75244879  0.47677275  1
  N  N7  1  0.95365880  0.74756031  0.02315068  1
  H  H8  1  0.43551119  0.25206454  0.27804737  1
  H  H9  1  0.32437923  0.17024405  0.44388022  1
  H  H10  1  0.32299015  0.32722569  0.43625940  1
  H  H11  1  0.61773780  0.17526512  0.50042104  1
  H  H12  1  0.61782973  0.32227775  0.49614289  1
  H  H13  1  0.51570224  0.24247182  0.65394528  1
  H  H14  1  0.93717181  0.24803770  0.22262045  1
  H  H15  1  0.82360161  0.17285918  0.06510488  1
  H  H16  1  0.82539789  0.32985520  0.05742277  1
  H  H17  1  0.11815596  0.17770993  0.00365701  1
  H  H18  1  0.11843079  0.32471890  0.99920933  1
  H  H19  1  0.01548826  0.25747807  0.84629153  1
  H  H20  1  0.56448626  0.74794157  0.72196605  1
  H  H21  1  0.67700436  0.67277761  0.56375447  1
  H  H22  1  0.67561932  0.82975919  0.55613129  1
  H  H23  1  0.38225918  0.82474082  0.49959303  1
  H  H24  1  0.38216588  0.67772813  0.50387059  1
  H  H25  1  0.48429391  0.75753369  0.34606827  1
  H  H26  1  0.06283345  0.75196623  0.77739100  1
  H  H27  1  0.17640326  0.82714263  0.93490944  1
  H  H28  1  0.17460891  0.67014672  0.94258533  1
  H  H29  1  0.88184748  0.82228757  0.99635701  1
  H  H30  1  0.88157800  0.67527848  0.00080208  1
  H  H31  1  0.98451821  0.74252028  0.15372052  1
  Ga  Ga32  1  0.50000273  0.00000277  0.00000851  1
  Ga  Ga33  1  0.99999731  0.50000184  0.50000227  1
  Tl  Tl34  1  0.00000115  0.00000230  0.50000842  1
  Tl  Tl35  1  0.49999943  0.50000438  0.99999936  1
  Br  Br36  1  0.47670697  0.22526008  0.94377317  1
  Br  Br37  1  0.21729616  0.00101844  0.15516333  1
  Br  Br38  1  0.64858552  0.01603537  0.29037286  1
  Br  Br39  1  0.97613689  0.27476047  0.55662891  1
  Br  Br40  1  0.35141837  0.98397109  0.70964489  1
  Br  Br41  1  0.78270936  0.99898416  0.84485442  1
  Br  Br42  1  0.52329912  0.77474566  0.05624355  1
  Br  Br43  1  0.71745427  0.49884253  0.34451829  1
  Br  Br44  1  0.14887806  0.48401128  0.20980249  1
  Br  Br45  1  0.02385827  0.72524332  0.44338217  1
  Br  Br46  1  0.28254156  0.50116132  0.65548731  1
  Br  Br47  1  0.85111908  0.51599195  0.79020495  1
