# generated using pymatgen
data_GaHgH12C2(Br3N)2
_symmetry_space_group_name_H-M   'P 1'
_cell_length_a   7.83857682
_cell_length_b   11.05752598
_cell_length_c   8.55506780
_cell_angle_alpha   86.73194777
_cell_angle_beta   89.77591200
_cell_angle_gamma   91.55300207
_symmetry_Int_Tables_number   1
_chemical_formula_structural   GaHgH12C2(Br3N)2
_chemical_formula_sum   'Ga2 Hg2 H24 C4 Br12 N4'
_cell_volume   740.02391856
_cell_formula_units_Z   2
loop_
 _symmetry_equiv_pos_site_id
 _symmetry_equiv_pos_as_xyz
  1  'x, y, z'
loop_
 _atom_site_type_symbol
 _atom_site_label
 _atom_site_symmetry_multiplicity
 _atom_site_fract_x
 _atom_site_fract_y
 _atom_site_fract_z
 _atom_site_occupancy
  C  C0  1  0.47599155  0.22920820  0.44579996  1
  C  C1  1  0.99585836  0.24292547  0.07975478  1
  C  C2  1  0.50652031  0.76716968  0.54325781  1
  C  C3  1  0.01004754  0.76433905  0.91620411  1
  N  N4  1  0.55977093  0.25029069  0.59790607  1
  N  N5  1  0.06261431  0.23451083  0.91774550  1
  N  N6  1  0.43893564  0.74724846  0.38435085  1
  N  N7  1  0.94442902  0.76656569  0.07906090  1
  H  H8  1  0.57399136  0.22480253  0.35497076  1
  H  H9  1  0.40270298  0.14337465  0.45666989  1
  H  H10  1  0.38917347  0.30345970  0.41835634  1
  H  H11  1  0.62650079  0.17468917  0.64156297  1
  H  H12  1  0.64614405  0.32271540  0.58916163  1
  H  H13  1  0.47262034  0.26741596  0.68465599  1
  H  H14  1  0.10400612  0.24430304  0.16001552  1
  H  H15  1  0.91214721  0.16377404  0.10813446  1
  H  H16  1  0.92491059  0.32649337  0.08477488  1
  H  H17  1  0.13590647  0.15814112  0.90575981  1
  H  H18  1  0.13978825  0.30899945  0.88306457  1
  H  H19  1  0.96386749  0.22859128  0.83845977  1
  H  H20  1  0.40072235  0.78797299  0.61998918  1
  H  H21  1  0.56815293  0.68478397  0.58833387  1
  H  H22  1  0.59954755  0.84307702  0.53482521  1
  H  H23  1  0.39268846  0.82637635  0.32913684  1
  H  H24  1  0.33903462  0.68384419  0.38711672  1
  H  H25  1  0.53283086  0.71438422  0.31316901  1
  H  H26  1  0.90158695  0.76649570  0.83635470  1
  H  H27  1  0.09429494  0.84376307  0.89186783  1
  H  H28  1  0.08144964  0.68140978  0.90654568  1
  H  H29  1  0.87718337  0.84460545  0.09856607  1
  H  H30  1  0.86273468  0.69313624  0.10861360  1
  H  H31  1  0.04387413  0.76351617  0.15792130  1
  Ga  Ga32  1  0.50472709  0.95998058  0.98295500  1
  Ga  Ga33  1  0.01954007  0.50331085  0.61591529  1
  Hg  Hg34  1  0.00594073  0.01264162  0.48267916  1
  Hg  Hg35  1  0.46652064  0.45391253  0.12759451  1
  Br  Br36  1  0.50278801  0.25455167  0.99730059  1
  Br  Br37  1  0.25453275  0.97204595  0.17109905  1
  Br  Br38  1  0.69773567  0.97912641  0.21602951  1
  Br  Br39  1  0.98684513  0.31441509  0.49624512  1
  Br  Br40  1  0.30673404  0.02171309  0.76229674  1
  Br  Br41  1  0.75595253  0.02766782  0.80305706  1
  Br  Br42  1  0.51736216  0.74509459  0.95352298  1
  Br  Br43  1  0.71537905  0.54047009  0.28822393  1
  Br  Br44  1  0.17640649  0.53514471  0.19558825  1
  Br  Br45  1  0.01086143  0.70615905  0.50973134  1
  Br  Br46  1  0.29805021  0.48617963  0.72670750  1
  Br  Br47  1  0.80062047  0.48528166  0.80924397  1
