# generated using pymatgen
data_GaH12AuC2(Br3N)2
_symmetry_space_group_name_H-M   'P 1'
_cell_length_a   7.66609460
_cell_length_b   11.55643834
_cell_length_c   7.93936832
_cell_angle_alpha   86.10118289
_cell_angle_beta   90.02365762
_cell_angle_gamma   90.03367673
_symmetry_Int_Tables_number   1
_chemical_formula_structural   GaH12AuC2(Br3N)2
_chemical_formula_sum   'Ga2 H24 Au2 C4 Br12 N4'
_cell_volume   701.74247575
_cell_formula_units_Z   2
loop_
 _symmetry_equiv_pos_site_id
 _symmetry_equiv_pos_as_xyz
  1  'x, y, z'
loop_
 _atom_site_type_symbol
 _atom_site_label
 _atom_site_symmetry_multiplicity
 _atom_site_fract_x
 _atom_site_fract_y
 _atom_site_fract_z
 _atom_site_occupancy
  C  C0  1  0.41724118  0.25320088  0.40545661  1
  C  C1  1  0.91797387  0.24686680  0.09482172  1
  C  C2  1  0.58277684  0.74680798  0.59456260  1
  C  C3  1  0.08203428  0.75313119  0.90518190  1
  N  N4  1  0.56515297  0.24084035  0.52536615  1
  N  N5  1  0.06555963  0.25913832  0.97461875  1
  N  N6  1  0.43485830  0.75917413  0.47466209  1
  N  N7  1  0.93444104  0.74084945  0.02537389  1
  H  H8  1  0.46896571  0.25950216  0.27677362  1
  H  H9  1  0.33304042  0.17708429  0.42447289  1
  H  H10  1  0.34543360  0.33193609  0.42939593  1
  H  H11  1  0.63854183  0.16791529  0.50150144  1
  H  H12  1  0.64715274  0.31223714  0.51031456  1
  H  H13  1  0.52552091  0.23240165  0.65121740  1
  H  H14  1  0.97005921  0.24055629  0.22339712  1
  H  H15  1  0.84584671  0.16815530  0.07105182  1
  H  H16  1  0.83394792  0.32302057  0.07594305  1
  H  H17  1  0.14743372  0.18772886  0.98960264  1
  H  H18  1  0.13917110  0.33207129  0.99829336  1
  H  H19  1  0.02559836  0.26753693  0.84884778  1
  H  H20  1  0.53105674  0.74050786  0.72324724  1
  H  H21  1  0.65458044  0.66807018  0.57062409  1
  H  H22  1  0.66697898  0.82292320  0.57554672  1
  H  H23  1  0.36146898  0.83210183  0.49852956  1
  H  H24  1  0.35285753  0.68778005  0.48972202  1
  H  H25  1  0.47448160  0.76760750  0.34880745  1
  H  H26  1  0.02995736  0.75944056  0.77660380  1
  H  H27  1  0.15415548  0.83184504  0.92895639  1
  H  H28  1  0.16606677  0.67698105  0.92405773  1
  H  H29  1  0.85256356  0.81225606  0.01038499  1
  H  H30  1  0.86083198  0.66791160  0.00169271  1
  H  H31  1  0.97439536  0.73245821  0.15114760  1
  Ga  Ga32  1  0.50011957  0.00001003  0.00015704  1
  Ga  Ga33  1  0.00019978  0.49999115  0.49976007  1
  Au  Au34  1  0.99995343  0.00000233  0.49992333  1
  Au  Au35  1  0.49992090  0.50000355  0.00014387  1
  Br  Br36  1  0.49093613  0.21525372  0.94161123  1
  Br  Br37  1  0.22941396  0.00586181  0.16136136  1
  Br  Br38  1  0.71999494  0.00908307  0.34275093  1
  Br  Br39  1  0.99050185  0.28475936  0.55859335  1
  Br  Br40  1  0.27982872  0.99092585  0.65717178  1
  Br  Br41  1  0.77061590  0.99414294  0.83863598  1
  Br  Br42  1  0.50908988  0.78474391  0.05842782  1
  Br  Br43  1  0.72939970  0.49409024  0.33852679  1
  Br  Br44  1  0.22005993  0.49107589  0.15730394  1
  Br  Br45  1  0.00954500  0.71525933  0.44138025  1
  Br  Br46  1  0.27065424  0.50591592  0.66151444  1
  Br  Br47  1  0.77964468  0.50892109  0.84285877  1
