# generated using pymatgen
data_GaH12IrC2(Br3N)2
_symmetry_space_group_name_H-M   'P 1'
_cell_length_a   7.87103879
_cell_length_b   11.12284375
_cell_length_c   7.70500524
_cell_angle_alpha   93.81311950
_cell_angle_beta   89.99884253
_cell_angle_gamma   89.98132988
_symmetry_Int_Tables_number   1
_chemical_formula_structural   GaH12IrC2(Br3N)2
_chemical_formula_sum   'Ga2 H24 Ir2 C4 Br12 N4'
_cell_volume   673.06704394
_cell_formula_units_Z   2
loop_
 _symmetry_equiv_pos_site_id
 _symmetry_equiv_pos_as_xyz
  1  'x, y, z'
loop_
 _atom_site_type_symbol
 _atom_site_label
 _atom_site_symmetry_multiplicity
 _atom_site_fract_x
 _atom_site_fract_y
 _atom_site_fract_z
 _atom_site_occupancy
  C  C0  1  0.39642454  0.25080541  0.41154510  1
  C  C1  1  0.89747660  0.24939060  0.08924213  1
  C  C2  1  0.60357356  0.74919974  0.58846649  1
  C  C3  1  0.10252755  0.75061253  0.91077085  1
  N  N4  1  0.54819700  0.25294707  0.52463466  1
  N  N5  1  0.04866078  0.24711002  0.97533890  1
  N  N6  1  0.45180094  0.74705798  0.47537742  1
  N  N7  1  0.95134497  0.75288856  0.02467636  1
  H  H8  1  0.43748244  0.24756827  0.27583800  1
  H  H9  1  0.32088418  0.17167008  0.43601407  1
  H  H10  1  0.32315420  0.33288042  0.44165964  1
  H  H11  1  0.62159334  0.17619614  0.49733444  1
  H  H12  1  0.62249039  0.32707732  0.50269424  1
  H  H13  1  0.51637598  0.25762671  0.65667420  1
  H  H14  1  0.93923105  0.25270809  0.22471445  1
  H  H15  1  0.82401363  0.16737833  0.05969144  1
  H  H16  1  0.82182356  0.32860485  0.06509271  1
  H  H17  1  0.12304337  0.17286192  0.99694699  1
  H  H18  1  0.12221006  0.32374940  0.00225468  1
  H  H19  1  0.01622124  0.24238884  0.84347903  1
  H  H20  1  0.56251634  0.75243845  0.72417361  1
  H  H21  1  0.67684273  0.66712386  0.55835356  1
  H  H22  1  0.67911515  0.82833421  0.56399540  1
  H  H23  1  0.37840499  0.82380912  0.50267782  1
  H  H24  1  0.37750721  0.67292795  0.49731984  1
  H  H25  1  0.48362100  0.74237777  0.34333798  1
  H  H26  1  0.06077088  0.74729704  0.77529937  1
  H  H27  1  0.17598865  0.83262526  0.94032407  1
  H  H28  1  0.17818296  0.67139857  0.93491523  1
  H  H29  1  0.87695860  0.82713515  0.00307183  1
  H  H30  1  0.87779878  0.67624780  0.99775925  1
  H  H31  1  0.98378645  0.75760892  0.15653572  1
  Ga  Ga32  1  0.50000231  0.00000252  0.00000636  1
  Ga  Ga33  1  0.99999036  0.50000296  0.49999230  1
  Ir  Ir34  1  -0.00000010  0.00000161  0.50000798  1
  Ir  Ir35  1  0.50000111  0.50000271  0.00000346  1
  Br  Br36  1  0.47570487  0.27387644  0.94754553  1
  Br  Br37  1  0.15940641  0.01003546  0.21508879  1
  Br  Br38  1  0.72234946  0.99788467  0.33298658  1
  Br  Br39  1  0.97501318  0.22610601  0.55281626  1
  Br  Br40  1  0.27765112  0.00211968  0.66702891  1
  Br  Br41  1  0.84059485  0.98996578  0.78492803  1
  Br  Br42  1  0.52429855  0.72612903  0.05246517  1
  Br  Br43  1  0.65927984  0.48991941  0.28495091  1
  Br  Br44  1  0.22226284  0.50217768  0.16693287  1
  Br  Br45  1  0.02498712  0.77389658  0.44720021  1
  Br  Br46  1  0.34071994  0.51008491  0.71505881  1
  Br  Br47  1  0.77773871  0.49782644  0.83307496  1
