# generated using pymatgen
data_GaSbH12C2(Br3N)2
_symmetry_space_group_name_H-M   'P 1'
_cell_length_a   8.10107223
_cell_length_b   11.47172833
_cell_length_c   7.87427609
_cell_angle_alpha   91.75793576
_cell_angle_beta   90.00325806
_cell_angle_gamma   89.98038235
_symmetry_Int_Tables_number   1
_chemical_formula_structural   GaSbH12C2(Br3N)2
_chemical_formula_sum   'Ga2 Sb2 H24 C4 Br12 N4'
_cell_volume   731.43800498
_cell_formula_units_Z   2
loop_
 _symmetry_equiv_pos_site_id
 _symmetry_equiv_pos_as_xyz
  1  'x, y, z'
loop_
 _atom_site_type_symbol
 _atom_site_label
 _atom_site_symmetry_multiplicity
 _atom_site_fract_x
 _atom_site_fract_y
 _atom_site_fract_z
 _atom_site_occupancy
  C  C0  1  0.39732461  0.25072409  0.41433185  1
  C  C1  1  0.89827161  0.24943821  0.08650257  1
  C  C2  1  0.60267376  0.74928043  0.58567945  1
  C  C3  1  0.10173253  0.75056365  0.91351059  1
  N  N4  1  0.54646325  0.25148731  0.52351776  1
  N  N5  1  0.04688113  0.24850148  0.97656598  1
  N  N6  1  0.45353430  0.74851845  0.47649356  1
  N  N7  1  0.95312491  0.75149644  0.02344938  1
  H  H8  1  0.43627928  0.24898600  0.28126809  1
  H  H9  1  0.32519008  0.17297135  0.44015417  1
  H  H10  1  0.32558199  0.32952644  0.44297959  1
  H  H11  1  0.61735556  0.17757075  0.49689899  1
  H  H12  1  0.61817325  0.32405091  0.49904172  1
  H  H13  1  0.51685666  0.25333700  0.65260168  1
  H  H14  1  0.93787516  0.25122772  0.21935374  1
  H  H15  1  0.82634088  0.17068137  0.05833982  1
  H  H16  1  0.82604610  0.32724644  0.06096648  1
  H  H17  1  0.11866347  0.17587892  0.00078617  1
  H  H18  1  0.11792300  0.32236181  0.00281653  1
  H  H19  1  0.01670283  0.24662480  0.84764156  1
  H  H20  1  0.56371957  0.75101981  0.71874278  1
  H  H21  1  0.67441378  0.67047699  0.55703189  1
  H  H22  1  0.67480980  0.82703191  0.55985533  1
  H  H23  1  0.38264265  0.82243523  0.50311397  1
  H  H24  1  0.38182357  0.67595503  0.50096985  1
  H  H25  1  0.48314009  0.74666936  0.34740996  1
  H  H26  1  0.06212709  0.74877596  0.78065976  1
  H  H27  1  0.17366212  0.82932085  0.94167518  1
  H  H28  1  0.17396045  0.67275559  0.93904216  1
  H  H29  1  0.88133961  0.82411774  0.99923233  1
  H  H30  1  0.88208535  0.67763524  0.99719852  1
  H  H31  1  0.98330527  0.75337254  0.15237334  1
  Ga  Ga32  1  0.49999968  0.00000199  0.00001026  1
  Ga  Ga33  1  0.99999847  0.50000330  0.49999501  1
  Sb  Sb34  1  0.00000077  0.00000253  0.50000993  1
  Sb  Sb35  1  0.49999935  0.50000360  0.00000153  1
  Br  Br36  1  0.47574875  0.25573979  0.94430276  1
  Br  Br37  1  0.17859360  0.01436985  0.19231843  1
  Br  Br38  1  0.69819667  0.00687922  0.32172966  1
  Br  Br39  1  0.97515851  0.24422212  0.55613489  1
  Br  Br40  1  0.30180652  0.99312676  0.67828988  1
  Br  Br41  1  0.82141327  0.98563073  0.80769678  1
  Br  Br42  1  0.52425541  0.74427062  0.05570893  1
  Br  Br43  1  0.67834536  0.48553808  0.30778840  1
  Br  Br44  1  0.19812793  0.49319013  0.17806885  1
  Br  Br45  1  0.02484122  0.75578041  0.44388079  1
  Br  Br46  1  0.32165025  0.51446643  0.69221600  1
  Br  Br47  1  0.80186426  0.50681286  0.82193977  1
