# generated using pymatgen
data_InGaH12C2(Br3N)2
_symmetry_space_group_name_H-M   'P 1'
_cell_length_a   8.06632167
_cell_length_b   11.49543907
_cell_length_c   7.85597064
_cell_angle_alpha   92.72893413
_cell_angle_beta   90.00491457
_cell_angle_gamma   89.97526480
_symmetry_Int_Tables_number   1
_chemical_formula_structural   InGaH12C2(Br3N)2
_chemical_formula_sum   'In2 Ga2 H24 C4 Br12 N4'
_cell_volume   727.62585754
_cell_formula_units_Z   2
loop_
 _symmetry_equiv_pos_site_id
 _symmetry_equiv_pos_as_xyz
  1  'x, y, z'
loop_
 _atom_site_type_symbol
 _atom_site_label
 _atom_site_symmetry_multiplicity
 _atom_site_fract_x
 _atom_site_fract_y
 _atom_site_fract_z
 _atom_site_occupancy
  C  C0  1  0.39539008  0.25049882  0.41288749  1
  C  C1  1  0.89644471  0.24972129  0.08805762  1
  C  C2  1  0.60460752  0.74950596  0.58712455  1
  C  C3  1  0.10356039  0.75028093  0.91195564  1
  N  N4  1  0.54436974  0.25176547  0.52343086  1
  N  N5  1  0.04482144  0.24826647  0.97668788  1
  N  N6  1  0.45562769  0.74823965  0.47658143  1
  N  N7  1  0.95518540  0.75173176  0.02332761  1
  H  H8  1  0.43529560  0.24869782  0.27972065  1
  H  H9  1  0.32258812  0.17309778  0.43721724  1
  H  H10  1  0.32328821  0.32936856  0.44241592  1
  H  H11  1  0.61577413  0.17766647  0.49694101  1
  H  H12  1  0.61641616  0.32393592  0.50005995  1
  H  H13  1  0.51386985  0.25491447  0.65277504  1
  H  H14  1  0.93709138  0.25156308  0.22099061  1
  H  H15  1  0.82414921  0.17089771  0.05907890  1
  H  H16  1  0.82353165  0.32718339  0.06407210  1
  H  H17  1  0.11694310  0.17602389  0.99973657  1
  H  H18  1  0.11638319  0.32229660  0.00277992  1
  H  H19  1  0.01367082  0.24510818  0.84751228  1
  H  H20  1  0.56470256  0.75130868  0.72029141  1
  H  H21  1  0.67670780  0.67063519  0.55759759  1
  H  H22  1  0.67741106  0.82690598  0.56279293  1
  H  H23  1  0.38422373  0.82233878  0.50307190  1
  H  H24  1  0.38358089  0.67606931  0.49995333  1
  H  H25  1  0.48612697  0.74509050  0.34723745  1
  H  H26  1  0.06291156  0.74844118  0.77902344  1
  H  H27  1  0.17585499  0.82910449  0.94093677  1
  H  H28  1  0.17647499  0.67281875  0.93593624  1
  H  H29  1  0.88306044  0.82397317  0.00028199  1
  H  H30  1  0.88362612  0.67770057  0.99723453  1
  H  H31  1  0.98633771  0.75488935  0.15250280  1
  Ga  Ga32  1  0.50000163  0.00000517  0.00000785  1
  Ga  Ga33  1  0.99999157  0.50000229  0.49999243  1
  In  In34  1  0.00000032  0.00000211  0.50000916  1
  In  In35  1  0.49999970  0.50000437  0.99999958  1
  Br  Br36  1  0.47493385  0.26433565  0.94331517  1
  Br  Br37  1  0.16335621  0.01545037  0.19825239  1
  Br  Br38  1  0.70461809  0.00399874  0.33352109  1
  Br  Br39  1  0.97430502  0.23566865  0.55714279  1
  Br  Br40  1  0.29538374  0.99600590  0.66649573  1
  Br  Br41  1  0.83664730  0.98454986  0.80176624  1
  Br  Br42  1  0.52506914  0.73567131  0.05669573  1
  Br  Br43  1  0.66325133  0.48449987  0.30185027  1
  Br  Br44  1  0.20458202  0.49611595  0.16638872  1
  Br  Br45  1  0.02569467  0.76433432  0.44287431  1
  Br  Br46  1  0.33674388  0.51550483  0.69815507  1
  Br  Br47  1  0.79541807  0.50388870  0.83361640  1
