# generated using pymatgen
data_GaAgH12C2(Br3N)2
_symmetry_space_group_name_H-M   'P 1'
_cell_length_a   8.12310404
_cell_length_b   10.67639723
_cell_length_c   7.76958306
_cell_angle_alpha   88.78545298
_cell_angle_beta   90.29848806
_cell_angle_gamma   90.06933092
_symmetry_Int_Tables_number   1
_chemical_formula_structural   GaAgH12C2(Br3N)2
_chemical_formula_sum   'Ga2 Ag2 H24 C4 Br12 N4'
_cell_volume   673.65992926
_cell_formula_units_Z   2
loop_
 _symmetry_equiv_pos_site_id
 _symmetry_equiv_pos_as_xyz
  1  'x, y, z'
loop_
 _atom_site_type_symbol
 _atom_site_label
 _atom_site_symmetry_multiplicity
 _atom_site_fract_x
 _atom_site_fract_y
 _atom_site_fract_z
 _atom_site_occupancy
  C  C0  1  0.43825869  0.25013052  0.43452456  1
  C  C1  1  0.93892457  0.25027913  0.06542882  1
  C  C2  1  0.56173553  0.74987440  0.56549139  1
  C  C3  1  0.06108074  0.74972270  0.93459363  1
  N  N4  1  0.59043094  0.24277153  0.54001047  1
  N  N5  1  0.09026584  0.25738216  0.96024066  1
  N  N6  1  0.40956039  0.75722076  0.46000939  1
  N  N7  1  0.90973946  0.74262936  0.03978268  1
  H  H8  1  0.47253400  0.25609934  0.29874147  1
  H  H9  1  0.36526194  0.16580296  0.45901042  1
  H  H10  1  0.36930631  0.33319967  0.47051815  1
  H  H11  1  0.65628524  0.16287561  0.51310466  1
  H  H12  1  0.66614237  0.31891509  0.51235323  1
  H  H13  1  0.56540379  0.24219169  0.67166743  1
  H  H14  1  0.97426422  0.24428214  0.20125229  1
  H  H15  1  0.86928077  0.16725640  0.02927925  1
  H  H16  1  0.86612864  0.33465135  0.04074490  1
  H  H17  1  0.16599099  0.18134892  0.98852628  1
  H  H18  1  0.15656853  0.33741890  0.98684362  1
  H  H19  1  0.06433695  0.25766230  0.82852673  1
  H  H20  1  0.52746435  0.74392282  0.70127612  1
  H  H21  1  0.63068747  0.66680107  0.52951373  1
  H  H22  1  0.63473226  0.83419923  0.54098468  1
  H  H23  1  0.34370288  0.83711728  0.48690398  1
  H  H24  1  0.33385203  0.68107701  0.48767880  1
  H  H25  1  0.43458480  0.75779013  0.32835297  1
  H  H26  1  0.02574172  0.75570841  0.79876922  1
  H  H27  1  0.13072489  0.83274825  0.97073056  1
  H  H28  1  0.13387557  0.66535200  0.95929170  1
  H  H29  1  0.83401664  0.81866217  0.01148763  1
  H  H30  1  0.84343530  0.66259159  0.01318967  1
  H  H31  1  0.93566820  0.74235681  0.17149710  1
  Ga  Ga32  1  0.50000177  -0.00000358  0.00000380  1
  Ga  Ga33  1  0.99998980  0.49999065  0.49998619  1
  Ag  Ag34  1  0.00000370  0.00000163  0.50002832  1
  Ag  Ag35  1  0.50006700  0.50002363  0.99981578  1
  Br  Br36  1  0.50596380  0.25989319  0.95715336  1
  Br  Br37  1  0.24519294  0.01004160  0.18468349  1
  Br  Br38  1  0.68055906  0.00444815  0.26371529  1
  Br  Br39  1  0.00653452  0.24006928  0.54232800  1
  Br  Br40  1  0.31944449  0.99555454  0.73628854  1
  Br  Br41  1  0.75481189  0.98995765  0.81532252  1
  Br  Br42  1  0.49403289  0.74010724  0.04287582  1
  Br  Br43  1  0.74401503  0.48948910  0.31396808  1
  Br  Br44  1  0.17921328  0.49667795  0.23753985  1
  Br  Br45  1  0.99345696  0.75994173  0.45769648  1
  Br  Br46  1  0.25596391  0.51051367  0.68606576  1
  Br  Br47  1  0.82078671  0.50333013  0.76249912  1
