# generated using pymatgen
data_GaH12RhC2(Br3N)2
_symmetry_space_group_name_H-M   'P 1'
_cell_length_a   7.90270908
_cell_length_b   11.09834199
_cell_length_c   7.71092453
_cell_angle_alpha   93.47954238
_cell_angle_beta   89.99492741
_cell_angle_gamma   89.97675261
_symmetry_Int_Tables_number   1
_chemical_formula_structural   GaH12RhC2(Br3N)2
_chemical_formula_sum   'Ga2 H24 Rh2 C4 Br12 N4'
_cell_volume   675.05501111
_cell_formula_units_Z   2
loop_
 _symmetry_equiv_pos_site_id
 _symmetry_equiv_pos_as_xyz
  1  'x, y, z'
loop_
 _atom_site_type_symbol
 _atom_site_label
 _atom_site_symmetry_multiplicity
 _atom_site_fract_x
 _atom_site_fract_y
 _atom_site_fract_z
 _atom_site_occupancy
  C  C0  1  0.40239298  0.25128702  0.41378709  1
  C  C1  1  0.90329954  0.24888340  0.08670977  1
  C  C2  1  0.59760494  0.74871828  0.58622474  1
  C  C3  1  0.09670449  0.75112043  0.91330250  1
  N  N4  1  0.55431849  0.25382977  0.52592435  1
  N  N5  1  0.05476453  0.24616984  0.97389028  1
  N  N6  1  0.44567881  0.74617488  0.47408837  1
  N  N7  1  0.94524111  0.75382933  0.02612411  1
  H  H8  1  0.44278574  0.24758673  0.27800810  1
  H  H9  1  0.32724114  0.17212603  0.44005074  1
  H  H10  1  0.32966985  0.33365185  0.44284796  1
  H  H11  1  0.62795191  0.17733101  0.49874902  1
  H  H12  1  0.62757537  0.32839582  0.50281867  1
  H  H13  1  0.52330529  0.25827851  0.65795091  1
  H  H14  1  0.94427805  0.25266566  0.22229787  1
  H  H15  1  0.83045391  0.16655195  0.05815219  1
  H  H16  1  0.82803164  0.32808276  0.06068978  1
  H  H17  1  0.12807130  0.17153075  0.99668325  1
  H  H18  1  0.12852626  0.32259407  0.00073886  1
  H  H19  1  0.02323259  0.24172987  0.84199881  1
  H  H20  1  0.55721287  0.75242059  0.72200402  1
  H  H21  1  0.67032676  0.66635257  0.55716622  1
  H  H22  1  0.67275766  0.82787824  0.55995832  1
  H  H23  1  0.37204618  0.82267417  0.50126282  1
  H  H24  1  0.37242166  0.67160939  0.49719632  1
  H  H25  1  0.47669139  0.74172504  0.34206159  1
  H  H26  1  0.05572390  0.74733985  0.77771517  1
  H  H27  1  0.16954784  0.83345262  0.94186229  1
  H  H28  1  0.17197521  0.67192148  0.93931780  1
  H  H29  1  0.87193045  0.82846707  0.00333449  1
  H  H30  1  0.87148231  0.67740377  0.99927396  1
  H  H31  1  0.97677447  0.75826847  0.15801511  1
  Ga  Ga32  1  0.50000339  0.00000117  0.00000476  1
  Ga  Ga33  1  0.99999000  0.50000326  0.49999122  1
  Rh  Rh34  1  0.99999915  0.00000163  0.50000722  1
  Rh  Rh35  1  0.50000246  0.50000198  0.00000471  1
  Br  Br36  1  0.48004942  0.27318431  0.94978882  1
  Br  Br37  1  0.16540329  0.00923542  0.21844874  1
  Br  Br38  1  0.72555861  0.99891435  0.32853368  1
  Br  Br39  1  0.97942731  0.22680301  0.55041581  1
  Br  Br40  1  0.27444037  0.00108997  0.67148045  1
  Br  Br41  1  0.83459680  0.99076624  0.78156755  1
  Br  Br42  1  0.51995553  0.72681962  0.05022387  1
  Br  Br43  1  0.66529165  0.49071571  0.28156586  1
  Br  Br44  1  0.22546840  0.50109113  0.17139690  1
  Br  Br45  1  0.02057177  0.77319937  0.44959958  1
  Br  Br46  1  0.33471147  0.50928745  0.71844823  1
  Br  Br47  1  0.77453547  0.49891243  0.82861373  1
