# generated using pymatgen
data_YGaH12C2(Br3N)2
_symmetry_space_group_name_H-M   'P 1'
_cell_length_a   8.13429217
_cell_length_b   11.65826337
_cell_length_c   7.91002651
_cell_angle_alpha   92.52908294
_cell_angle_beta   90.00598889
_cell_angle_gamma   89.97449219
_symmetry_Int_Tables_number   1
_chemical_formula_structural   YGaH12C2(Br3N)2
_chemical_formula_sum   'Y2 Ga2 H24 C4 Br12 N4'
_cell_volume   749.39069176
_cell_formula_units_Z   2
loop_
 _symmetry_equiv_pos_site_id
 _symmetry_equiv_pos_as_xyz
  1  'x, y, z'
loop_
 _atom_site_type_symbol
 _atom_site_label
 _atom_site_symmetry_multiplicity
 _atom_site_fract_x
 _atom_site_fract_y
 _atom_site_fract_z
 _atom_site_occupancy
  C  C0  1  0.39481086  0.25038995  0.41293118  1
  C  C1  1  0.89585625  0.24985278  0.08806871  1
  C  C2  1  0.60518721  0.74961438  0.58708014  1
  C  C3  1  0.10414864  0.75014906  0.91194476  1
  N  N4  1  0.54291480  0.25145785  0.52240511  1
  N  N5  1  0.04336194  0.24858924  0.97777717  1
  N  N6  1  0.45708219  0.74854766  0.47760781  1
  N  N7  1  0.95664489  0.75140897  0.02223896  1
  H  H8  1  0.43410255  0.24853371  0.28057027  1
  H  H9  1  0.32290361  0.17385659  0.43725265  1
  H  H10  1  0.32316219  0.32806950  0.44216528  1
  H  H11  1  0.61359188  0.17837276  0.49571203  1
  H  H12  1  0.61411097  0.32290024  0.49910190  1
  H  H13  1  0.51294635  0.25395972  0.65088400  1
  H  H14  1  0.93594289  0.25175127  0.22021331  1
  H  H15  1  0.82401865  0.17222545  0.05941817  1
  H  H16  1  0.82385001  0.32644954  0.06412175  1
  H  H17  1  0.11459912  0.17707192  0.00072339  1
  H  H18  1  0.11419473  0.32159210  0.00402456  1
  H  H19  1  0.01270223  0.24607604  0.84942682  1
  H  H20  1  0.56589574  0.75147279  0.71944203  1
  H  H21  1  0.67683393  0.67193421  0.55784817  1
  H  H22  1  0.67709596  0.82614710  0.56275731  1
  H  H23  1  0.38640638  0.82163197  0.50430098  1
  H  H24  1  0.38588646  0.67710476  0.50091100  1
  H  H25  1  0.48705076  0.74604544  0.34912810  1
  H  H26  1  0.06405997  0.74825301  0.77980107  1
  H  H27  1  0.17598611  0.82777621  0.94059816  1
  H  H28  1  0.17615596  0.67355198  0.93588659  1
  H  H29  1  0.88540466  0.82292516  0.99929549  1
  H  H30  1  0.88581424  0.67840509  0.99599025  1
  H  H31  1  0.98730623  0.75392130  0.15058850  1
  Ga  Ga32  1  0.50000273  0.00000565  0.00000840  1
  Ga  Ga33  1  0.99999260  0.50000115  0.49999438  1
  Y  Y34  1  0.00000102  0.00000171  0.50000935  1
  Y  Y35  1  0.49999889  0.50000510  0.99999932  1
  Br  Br36  1  0.47329830  0.26190800  0.93897113  1
  Br  Br37  1  0.16210617  0.01868419  0.19043465  1
  Br  Br38  1  0.69589523  0.00729314  0.33665556  1
  Br  Br39  1  0.97273911  0.23809706  0.56148838  1
  Br  Br40  1  0.30410776  0.99271210  0.66336225  1
  Br  Br41  1  0.83789825  0.98131537  0.80958406  1
  Br  Br42  1  0.52670477  0.73810099  0.06103981  1
  Br  Br43  1  0.66204649  0.48122517  0.30964467  1
  Br  Br44  1  0.19590320  0.49285026  0.16331816  1
  Br  Br45  1  0.02726060  0.76190583  0.43852966  1
  Br  Br46  1  0.33794557  0.51877964  0.69035767  1
  Br  Br47  1  0.80409470  0.50715518  0.83668353  1
