# generated using pymatgen
data_BaBH12C2(I3N)2
_symmetry_space_group_name_H-M   'P 1'
_cell_length_a   10.28811864
_cell_length_b   10.81608670
_cell_length_c   8.53755360
_cell_angle_alpha   91.36096610
_cell_angle_beta   78.32583474
_cell_angle_gamma   90.96764480
_symmetry_Int_Tables_number   1
_chemical_formula_structural   BaBH12C2(I3N)2
_chemical_formula_sum   'Ba2 B2 H24 C4 I12 N4'
_cell_volume   930.04935054
_cell_formula_units_Z   2
loop_
 _symmetry_equiv_pos_site_id
 _symmetry_equiv_pos_as_xyz
  1  'x, y, z'
loop_
 _atom_site_type_symbol
 _atom_site_label
 _atom_site_symmetry_multiplicity
 _atom_site_fract_x
 _atom_site_fract_y
 _atom_site_fract_z
 _atom_site_occupancy
  C  C0  1  0.46119627  0.26155707  0.44060755  1
  C  C1  1  0.92500291  0.26062909  0.00059074  1
  C  C2  1  0.50832371  0.74030191  0.50619051  1
  C  C3  1  0.09519502  0.76401998  0.00329458  1
  N  N4  1  0.55886715  0.25175860  0.54567518  1
  N  N5  1  0.05336477  0.25528024  0.88368479  1
  N  N6  1  0.41917661  0.66472392  0.42531292  1
  N  N7  1  0.96814671  0.79826935  0.10914875  1
  H  H8  1  0.51542124  0.27911755  0.31849976  1
  H  H9  1  0.40889686  0.17278393  0.43805091  1
  H  H10  1  0.39011541  0.33440946  0.48785712  1
  H  H11  1  0.62613506  0.18041960  0.49905094  1
  H  H12  1  0.61250913  0.33313751  0.55030589  1
  H  H13  1  0.51366542  0.23073310  0.66233225  1
  H  H14  1  0.94161235  0.23871922  0.11950299  1
  H  H15  1  0.85766928  0.19121379  0.96403151  1
  H  H16  1  0.88429401  0.35368229  1.00002366  1
  H  H17  1  0.09788890  0.16944035  0.88029092  1
  H  H18  1  0.12137940  0.32158102  0.90765860  1
  H  H19  1  0.03835873  0.26880001  0.76782040  1
  H  H20  1  0.45495265  0.78930211  0.61403389  1
  H  H21  1  0.57942153  0.67876999  0.54499952  1
  H  H22  1  0.56044399  0.80986134  0.42328117  1
  H  H23  1  0.18718864  0.83308336  0.32447837  1
  H  H24  1  0.37132901  0.60258726  0.50842011  1
  H  H25  1  0.34472414  0.72134733  0.40691664  1
  H  H26  1  0.10340461  0.79879607  0.88141084  1
  H  H27  1  0.17922513  0.80191750  0.05131858  1
  H  H28  1  0.10370821  0.66317420  0.99603096  1
  H  H29  1  0.94969531  0.88917771  0.08863005  1
  H  H30  1  0.89395678  0.75108798  0.06624140  1
  H  H31  1  0.17019092  0.76659497  0.34865778  1
  B  B32  1  0.40272777  0.03973951  0.98245375  1
  B  B33  1  0.99564886  0.43804975  0.41471652  1
  Ba  Ba34  1  0.87399147  0.80201238  0.44860568  1
  Ba  Ba35  1  0.47833225  0.53827317  0.11975118  1
  I  I36  1  0.55583115  0.19921579  0.96610865  1
  I  I37  1  0.23831914  0.07376171  0.19508611  1
  I  I38  1  0.72303621  0.02710590  0.30353171  1
  I  I39  1  0.96696698  0.24842986  0.50940122  1
  I  I40  1  0.31702072  0.03447809  0.75796803  1
  I  I41  1  0.92505861  0.97155861  0.74945145  1
  I  I42  1  0.51422990  0.86231091  0.98633719  1
  I  I43  1  0.78747705  0.49626119  0.36757371  1
  I  I44  1  0.13944519  0.45070173  0.17910758  1
  I  I45  1  0.07187278  0.56763452  0.58336144  1
  I  I46  1  0.35727159  0.48289057  0.78954332  1
  I  I47  1  0.75733420  0.59137677  0.88294979  1
