# generated using pymatgen
data_GaAsH12C2(Br3N)2
_symmetry_space_group_name_H-M   'P 1'
_cell_length_a   8.06247300
_cell_length_b   11.36856334
_cell_length_c   7.81851522
_cell_angle_alpha   92.95240659
_cell_angle_beta   89.99870957
_cell_angle_gamma   89.98722755
_symmetry_Int_Tables_number   1
_chemical_formula_structural   GaAsH12C2(Br3N)2
_chemical_formula_sum   'Ga2 As2 H24 C4 Br12 N4'
_cell_volume   715.68398026
_cell_formula_units_Z   2
loop_
 _symmetry_equiv_pos_site_id
 _symmetry_equiv_pos_as_xyz
  1  'x, y, z'
loop_
 _atom_site_type_symbol
 _atom_site_label
 _atom_site_symmetry_multiplicity
 _atom_site_fract_x
 _atom_site_fract_y
 _atom_site_fract_z
 _atom_site_occupancy
  C  C0  1  0.40210133  0.25129020  0.41552622  1
  C  C1  1  0.90292767  0.24885959  0.08501012  1
  C  C2  1  0.59789634  0.74871636  0.58448525  1
  C  C3  1  0.09707425  0.75114062  0.91500341  1
  N  N4  1  0.55267779  0.25326348  0.52441394  1
  N  N5  1  0.05308371  0.24677919  0.97548780  1
  N  N6  1  0.44732158  0.74674324  0.47559501  1
  N  N7  1  0.94692315  0.75321937  0.02453312  1
  H  H8  1  0.44036097  0.24849162  0.28120543  1
  H  H9  1  0.32919662  0.17349042  0.44198969  1
  H  H10  1  0.33079914  0.33144263  0.44534507  1
  H  H11  1  0.62422350  0.17844463  0.49715181  1
  H  H12  1  0.62423540  0.32617840  0.49959564  1
  H  H13  1  0.52374080  0.25708125  0.65476736  1
  H  H14  1  0.94174768  0.25176093  0.21916421  1
  H  H15  1  0.83151248  0.16873945  0.05566395  1
  H  H16  1  0.82992410  0.32669590  0.05875302  1
  H  H17  1  0.12468692  0.17378758  0.00004290  1
  H  H18  1  0.12474867  0.32151741  0.00245255  1
  H  H19  1  0.02366516  0.24293816  0.84524502  1
  H  H20  1  0.55963506  0.75151840  0.71880600  1
  H  H21  1  0.66919646  0.66856260  0.55466952  1
  H  H22  1  0.67080345  0.82651458  0.55801904  1
  H  H23  1  0.37577590  0.82156215  0.50285588  1
  H  H24  1  0.37576207  0.67382953  0.50040885  1
  H  H25  1  0.47626107  0.74292472  0.34524164  1
  H  H26  1  0.05824931  0.74823701  0.78085082  1
  H  H27  1  0.16848627  0.83126249  0.94434590  1
  H  H28  1  0.17008175  0.67330626  0.94126069  1
  H  H29  1  0.87531545  0.82620922  0.99998440  1
  H  H30  1  0.87525806  0.67848083  0.99757353  1
  H  H31  1  0.97634782  0.75706081  0.15477501  1
  Ga  Ga32  1  0.49996393  0.99999754  0.00002533  1
  Ga  Ga33  1  0.99997313  0.50001173  0.49992871  1
  As  As34  1  0.99999465  0.00000736  0.50002265  1
  As  As35  1  0.50000786  0.50000078  0.99998106  1
  Br  Br36  1  0.47924603  0.26594996  0.94615298  1
  Br  Br37  1  0.16750406  0.01453306  0.20578036  1
  Br  Br38  1  0.71303198  0.00306556  0.32825409  1
  Br  Br39  1  0.97876356  0.23404806  0.55404700  1
  Br  Br40  1  0.28698229  0.99694016  0.67176208  1
  Br  Br41  1  0.83252066  0.98546974  0.79421063  1
  Br  Br42  1  0.52076332  0.73405627  0.05385807  1
  Br  Br43  1  0.66743510  0.48539172  0.29424391  1
  Br  Br44  1  0.21297130  0.49694151  0.17168547  1
  Br  Br45  1  0.02124317  0.76594781  0.44597138  1
  Br  Br46  1  0.33259584  0.51461067  0.70580636  1
  Br  Br47  1  0.78700688  0.50305728  0.82834374  1
