# generated using pymatgen
data_GeH12PbC2(Br3N)2
_symmetry_space_group_name_H-M   'P 1'
_cell_length_a   8.06502243
_cell_length_b   11.48068488
_cell_length_c   7.85659901
_cell_angle_alpha   89.04022746
_cell_angle_beta   90.00460510
_cell_angle_gamma   90.00741860
_symmetry_Int_Tables_number   1
_chemical_formula_structural   GeH12PbC2(Br3N)2
_chemical_formula_sum   'Ge2 H24 Pb2 C4 Br12 N4'
_cell_volume   727.35599713
_cell_formula_units_Z   2
loop_
 _symmetry_equiv_pos_site_id
 _symmetry_equiv_pos_as_xyz
  1  'x, y, z'
loop_
 _atom_site_type_symbol
 _atom_site_label
 _atom_site_symmetry_multiplicity
 _atom_site_fract_x
 _atom_site_fract_y
 _atom_site_fract_z
 _atom_site_occupancy
  C  C0  1  0.39549384  0.25009003  0.41347161  1
  C  C1  1  0.89647685  0.25003869  0.08742800  1
  C  C2  1  0.60450272  0.74991521  0.58654183  1
  C  C3  1  0.10352793  0.74996144  0.91258359  1
  N  N4  1  0.54465202  0.24942146  0.52347005  1
  N  N5  1  0.04505847  0.25057412  0.97664144  1
  N  N6  1  0.45534542  0.75058386  0.47654253  1
  N  N7  1  0.95494740  0.74942338  0.02337157  1
  H  H8  1  0.43509151  0.25032512  0.28036737  1
  H  H9  1  0.32367473  0.17149389  0.44116949  1
  H  H10  1  0.32265328  0.32783585  0.43957264  1
  H  H11  1  0.61607467  0.17645391  0.49803659  1
  H  H12  1  0.61657131  0.32286658  0.49797721  1
  H  H13  1  0.51449711  0.24777908  0.65272818  1
  H  H14  1  0.93680533  0.24982755  0.22030924  1
  H  H15  1  0.82335219  0.17232070  0.06181171  1
  H  H16  1  0.82464784  0.32868115  0.06011327  1
  H  H17  1  0.11697280  0.17710040  0.00185468  1
  H  H18  1  0.11670520  0.32351379  0.00165584  1
  H  H19  1  0.01426947  0.25218484  0.84754071  1
  H  H20  1  0.56490632  0.74968169  0.71964563  1
  H  H21  1  0.67734146  0.67216746  0.56044173  1
  H  H22  1  0.67632451  0.82850985  0.55884170  1
  H  H23  1  0.38392204  0.82355233  0.50197826  1
  H  H24  1  0.38342534  0.67713912  0.50203685  1
  H  H25  1  0.48549874  0.75222759  0.34728614  1
  H  H26  1  0.06319887  0.75017435  0.77970252  1
  H  H27  1  0.17665185  0.82767996  0.93820189  1
  H  H28  1  0.17535895  0.67131931  0.93989487  1
  H  H29  1  0.88303135  0.82289594  0.99815905  1
  H  H30  1  0.88330280  0.67648215  0.99835538  1
  H  H31  1  0.98573685  0.74781227  0.15247121  1
  Ge  Ge32  1  0.49999738  1.00000005  0.00001072  1
  Ge  Ge33  1  0.99999826  0.50000532  0.49998595  1
  Pb  Pb34  1  0.99999760  0.00000526  0.50001411  1
  Pb  Pb35  1  0.50000385  0.50000290  0.99999225  1
  Br  Br36  1  0.47411541  0.24165737  0.94353245  1
  Br  Br37  1  0.19748942  0.00868224  0.17454870  1
  Br  Br38  1  0.67582187  0.01374711  0.30907697  1
  Br  Br39  1  0.97355069  0.25834128  0.55693994  1
  Br  Br40  1  0.32418575  0.98625953  0.69094838  1
  Br  Br41  1  0.80252719  0.99131698  0.82546630  1
  Br  Br42  1  0.52588727  0.75835843  0.05648163  1
  Br  Br43  1  0.69750387  0.49119756  0.32537406  1
  Br  Br44  1  0.17592134  0.48634959  0.19099538  1
  Br  Br45  1  0.02644477  0.74165906  0.44307276  1
  Br  Br46  1  0.30249676  0.50880897  0.67463083  1
  Br  Br47  1  0.82406314  0.51365352  0.80902337  1
