# generated using pymatgen
data_HgGeH12C2(Br3N)2
_symmetry_space_group_name_H-M   'P 1'
_cell_length_a   7.87126827
_cell_length_b   11.24392825
_cell_length_c   7.74712684
_cell_angle_alpha   89.31761310
_cell_angle_beta   90.00946265
_cell_angle_gamma   90.01057422
_symmetry_Int_Tables_number   1
_chemical_formula_structural   HgGeH12C2(Br3N)2
_chemical_formula_sum   'Hg2 Ge2 H24 C4 Br12 N4'
_cell_volume   685.60287648
_cell_formula_units_Z   2
loop_
 _symmetry_equiv_pos_site_id
 _symmetry_equiv_pos_as_xyz
  1  'x, y, z'
loop_
 _atom_site_type_symbol
 _atom_site_label
 _atom_site_symmetry_multiplicity
 _atom_site_fract_x
 _atom_site_fract_y
 _atom_site_fract_z
 _atom_site_occupancy
  C  C0  1  0.39719083  0.24992136  0.41268915  1
  C  C1  1  0.89817583  0.25018637  0.08801131  1
  C  C2  1  0.60280598  0.75008392  0.58732632  1
  C  C3  1  0.10182948  0.74981533  0.91199964  1
  N  N4  1  0.54893027  0.24946092  0.52522227  1
  N  N5  1  0.04938246  0.25052711  0.97480664  1
  N  N6  1  0.45106580  0.75054364  0.47479423  1
  N  N7  1  0.95062347  0.74947166  0.02520480  1
  H  H8  1  0.43854086  0.25055109  0.27807788  1
  H  H9  1  0.32262582  0.17018572  0.44016424  1
  H  H10  1  0.32303351  0.32951132  0.43896457  1
  H  H11  1  0.62259867  0.17499655  0.50096849  1
  H  H12  1  0.62272821  0.32410363  0.49942718  1
  H  H13  1  0.51729268  0.24899391  0.65610636  1
  H  H14  1  0.94018083  0.24960617  0.22242612  1
  H  H15  1  0.82376269  0.17061003  0.06219292  1
  H  H16  1  0.82359772  0.32994967  0.06082473  1
  H  H17  1  0.12316424  0.17585115  0.00035689  1
  H  H18  1  0.12326561  0.32496221  0.99869643  1
  H  H19  1  0.01715477  0.25096682  0.84406465  1
  H  H20  1  0.56145703  0.74945816  0.72193787  1
  H  H21  1  0.67696091  0.67049233  0.56105455  1
  H  H22  1  0.67737301  0.82981801  0.55984669  1
  H  H23  1  0.37739835  0.82500878  0.49904661  1
  H  H24  1  0.37726772  0.67590135  0.50059230  1
  H  H25  1  0.48270261  0.75100887  0.34390982  1
  H  H26  1  0.05982393  0.75039679  0.77758477  1
  H  H27  1  0.17624212  0.82939177  0.93781991  1
  H  H28  1  0.17640889  0.67005196  0.93918292  1
  H  H29  1  0.87683870  0.82414626  0.99965557  1
  H  H30  1  0.87674327  0.67503519  0.00131414  1
  H  H31  1  0.98285144  0.74903236  0.15594646  1
  Ge  Ge32  1  0.49999861  0.00000802  0.00000841  1
  Ge  Ge33  1  0.99998761  0.50000611  0.49998007  1
  Hg  Hg34  1  0.99999903  0.00000829  0.50001070  1
  Hg  Hg35  1  0.50000190  0.50001308  0.99997998  1
  Br  Br36  1  0.47738598  0.24538665  0.94801082  1
  Br  Br37  1  0.19578578  0.00577928  0.18713635  1
  Br  Br38  1  0.68954639  0.00811246  0.30913388  1
  Br  Br39  1  0.97670960  0.25459772  0.55242726  1
  Br  Br40  1  0.31045229  0.99189113  0.69087959  1
  Br  Br41  1  0.80421570  0.99421970  0.81288285  1
  Br  Br42  1  0.52261991  0.75461040  0.05201215  1
  Br  Br43  1  0.69573728  0.49415941  0.31277076  1
  Br  Br44  1  0.18958164  0.49196135  0.19092555  1
  Br  Br45  1  0.02328533  0.74540411  0.44758515  1
  Br  Br46  1  0.30427268  0.50584128  0.68724495  1
  Br  Br47  1  0.81042631  0.50803888  0.80909170  1
