# generated using pymatgen
data_GeH12PtC2(Br3N)2
_symmetry_space_group_name_H-M   'P 1'
_cell_length_a   8.51020874
_cell_length_b   10.41711376
_cell_length_c   8.12015868
_cell_angle_alpha   90.85302733
_cell_angle_beta   90.14891789
_cell_angle_gamma   90.05507313
_symmetry_Int_Tables_number   1
_chemical_formula_structural   GeH12PtC2(Br3N)2
_chemical_formula_sum   'Ge2 H24 Pt2 C4 Br12 N4'
_cell_volume   719.78421360
_cell_formula_units_Z   2
loop_
 _symmetry_equiv_pos_site_id
 _symmetry_equiv_pos_as_xyz
  1  'x, y, z'
loop_
 _atom_site_type_symbol
 _atom_site_label
 _atom_site_symmetry_multiplicity
 _atom_site_fract_x
 _atom_site_fract_y
 _atom_site_fract_z
 _atom_site_occupancy
  C  C0  1  0.46330288  0.28879306  0.38571265  1
  C  C1  1  0.94041451  0.21367804  0.08416898  1
  C  C2  1  0.55883264  0.71404503  0.58310214  1
  C  C3  1  0.03723659  0.78779815  0.88420141  1
  N  N4  1  0.57232413  0.27175560  0.52578424  1
  N  N5  1  0.09151278  0.24596772  0.00319619  1
  N  N6  1  0.40839531  0.74681320  0.50043881  1
  N  N7  1  0.92782024  0.77169177  0.02355326  1
  H  H8  1  0.52594853  0.26855740  0.27056030  1
  H  H9  1  0.36592648  0.22076860  0.39811015  1
  H  H10  1  0.42084065  0.38790064  0.38580056  1
  H  H11  1  0.62252254  0.18028823  0.51824550  1
  H  H12  1  0.66441840  0.33686102  0.51870388  1
  H  H13  1  0.52004279  0.28334018  0.64183449  1
  H  H14  1  0.96451487  0.17968642  0.20886602  1
  H  H15  1  0.88152439  0.13688521  0.01413012  1
  H  H16  1  0.86527108  0.29897653  0.08729916  1
  H  H17  1  0.17609506  0.17568983  0.02331524  1
  H  H18  1  0.13901949  0.33324040  0.04449335  1
  H  H19  1  0.07642491  0.25280438  0.87651695  1
  H  H20  1  0.53367142  0.67862211  0.70677960  1
  H  H21  1  0.61852827  0.63821526  0.51257070  1
  H  H22  1  0.63375456  0.79954781  0.58887702  1
  H  H23  1  0.36087470  0.83387390  0.54195607  1
  H  H24  1  0.32349501  0.67648935  0.51898480  1
  H  H25  1  0.42437212  0.75428129  0.37404447  1
  H  H26  1  0.97493217  0.76646429  0.76877736  1
  H  H27  1  0.07961632  0.88698232  0.88326047  1
  H  H28  1  0.13459624  0.72008340  0.89835663  1
  H  H29  1  0.83589535  0.83676729  0.01500793  1
  H  H30  1  0.87737532  0.68020985  0.01660065  1
  H  H31  1  0.97979933  0.78396163  0.13994284  1
  Ge  Ge32  1  0.42166063  0.87314767  0.92890178  1
  Ge  Ge33  1  0.07862851  0.37351329  0.42949809  1
  Pt  Pt34  1  0.99125425  0.01158073  0.51426575  1
  Pt  Pt35  1  0.50858711  0.51132753  0.01430589  1
  Br  Br36  1  0.46334586  0.29188896  0.91899134  1
  Br  Br37  1  0.30722825  0.00231201  0.15714588  1
  Br  Br38  1  0.73500069  0.00560145  0.37279595  1
  Br  Br39  1  0.92859634  0.22105986  0.64038564  1
  Br  Br40  1  0.25804223  0.03072429  0.63776705  1
  Br  Br41  1  0.66691583  0.98779838  0.85896241  1
  Br  Br42  1  0.57297742  0.72095751  0.13957156  1
  Br  Br43  1  0.83300334  0.48741122  0.35921161  1
  Br  Br44  1  0.24268105  0.53088087  0.13835432  1
  Br  Br45  1  0.03513986  0.79236253  0.41790185  1
  Br  Br46  1  0.19389454  0.50352614  0.65696851  1
  Br  Br47  1  0.76376875  0.50494592  0.87207703  1
