# generated using pymatgen
data_BaGeH12C2(Br3N)2
_symmetry_space_group_name_H-M   'P 1'
_cell_length_a   8.30285312
_cell_length_b   11.79397149
_cell_length_c   7.92126350
_cell_angle_alpha   88.20043375
_cell_angle_beta   89.98664455
_cell_angle_gamma   89.99880066
_symmetry_Int_Tables_number   1
_chemical_formula_structural   BaGeH12C2(Br3N)2
_chemical_formula_sum   'Ba2 Ge2 H24 C4 Br12 N4'
_cell_volume   775.29615344
_cell_formula_units_Z   2
loop_
 _symmetry_equiv_pos_site_id
 _symmetry_equiv_pos_as_xyz
  1  'x, y, z'
loop_
 _atom_site_type_symbol
 _atom_site_label
 _atom_site_symmetry_multiplicity
 _atom_site_fract_x
 _atom_site_fract_y
 _atom_site_fract_z
 _atom_site_occupancy
  C  C0  1  0.41107221  0.25096399  0.42482406  1
  C  C1  1  0.91156734  0.24915460  0.07523144  1
  C  C2  1  0.58914339  0.74958106  0.57591707  1
  C  C3  1  0.08866443  0.75088046  0.92507671  1
  N  N4  1  0.55822379  0.24830568  0.53104679  1
  N  N5  1  0.05851874  0.25183699  0.96865980  1
  N  N6  1  0.44244706  0.75096778  0.46904039  1
  N  N7  1  0.94178563  0.74902705  0.03178651  1
  H  H8  1  0.44750063  0.25125304  0.29192619  1
  H  H9  1  0.34133633  0.17423906  0.45432350  1
  H  H10  1  0.34140401  0.32692365  0.45187774  1
  H  H11  1  0.62570713  0.17706674  0.50345538  1
  H  H12  1  0.62874022  0.31973685  0.50477168  1
  H  H13  1  0.53083203  0.24483444  0.66004832  1
  H  H14  1  0.94827965  0.24804939  0.20805709  1
  H  H15  1  0.84120864  0.17363050  0.04750836  1
  H  H16  1  0.84240557  0.32631031  0.04689950  1
  H  H17  1  0.12885705  0.18025232  0.99454620  1
  H  H18  1  0.12623363  0.32293671  0.99649288  1
  H  H19  1  0.03096210  0.25554507  0.83973536  1
  H  H20  1  0.55217345  0.74918484  0.70865829  1
  H  H21  1  0.66023667  0.67417461  0.54937527  1
  H  H22  1  0.65770397  0.82685986  0.54663212  1
  H  H23  1  0.37375340  0.82175263  0.49589336  1
  H  H24  1  0.37289195  0.67903143  0.49544019  1
  H  H25  1  0.47030062  0.75429173  0.34015720  1
  H  H26  1  0.05195398  0.75026425  0.79233170  1
  H  H27  1  0.15846587  0.82701264  0.95078646  1
  H  H28  1  0.15842197  0.67433085  0.95557304  1
  H  H29  1  0.87156399  0.82056458  0.00501477  1
  H  H30  1  0.87381569  0.67786847  0.00528855  1
  H  H31  1  0.96955777  0.74606600  0.16070100  1
  Ge  Ge32  1  0.49884220  0.99962299  0.99995149  1
  Ge  Ge33  1  0.99977154  0.49980799  0.49890683  1
  Ba  Ba34  1  0.99898273  0.99975392  0.50007987  1
  Ba  Ba35  1  0.50047010  0.49977819  0.99841151  1
  Br  Br36  1  0.47922470  0.23524189  0.94169917  1
  Br  Br37  1  0.20042656  0.01320657  0.16105560  1
  Br  Br38  1  0.66323659  0.02088648  0.30827070  1
  Br  Br39  1  0.97891078  0.26422139  0.55800201  1
  Br  Br40  1  0.33474609  0.97854996  0.69157184  1
  Br  Br41  1  0.79725947  0.98662451  0.83895176  1
  Br  Br42  1  0.52023637  0.76403805  0.05823582  1
  Br  Br43  1  0.70141105  0.48693165  0.33801297  1
  Br  Br44  1  0.16483117  0.47881761  0.19058617  1
  Br  Br45  1  0.02108554  0.73541502  0.44194808  1
  Br  Br46  1  0.29834701  0.51300232  0.66008581  1
  Br  Br47  1  0.83651295  0.52128217  0.80745006  1
