# generated using pymatgen
data_SnGeH12C2(Br3N)2
_symmetry_space_group_name_H-M   'P 1'
_cell_length_a   8.15976544
_cell_length_b   11.38433528
_cell_length_c   7.88564804
_cell_angle_alpha   89.29731031
_cell_angle_beta   89.97777260
_cell_angle_gamma   90.05743766
_symmetry_Int_Tables_number   1
_chemical_formula_structural   SnGeH12C2(Br3N)2
_chemical_formula_sum   'Sn2 Ge2 H24 C4 Br12 N4'
_cell_volume   732.46997443
_cell_formula_units_Z   2
loop_
 _symmetry_equiv_pos_site_id
 _symmetry_equiv_pos_as_xyz
  1  'x, y, z'
loop_
 _atom_site_type_symbol
 _atom_site_label
 _atom_site_symmetry_multiplicity
 _atom_site_fract_x
 _atom_site_fract_y
 _atom_site_fract_z
 _atom_site_occupancy
  C  C0  1  0.41880407  0.25105694  0.42528883  1
  C  C1  1  0.91902199  0.24715731  0.07493958  1
  C  C2  1  0.58089309  0.75075944  0.57523194  1
  C  C3  1  0.07929097  0.74773417  0.92488647  1
  N  N4  1  0.56509716  0.24867198  0.53676970  1
  N  N5  1  0.06512602  0.25059075  0.96303496  1
  N  N6  1  0.43516857  0.75022865  0.46288167  1
  N  N7  1  0.93349367  0.74890658  0.03713752  1
  H  H8  1  0.46004188  0.25176231  0.29328964  1
  H  H9  1  0.34593565  0.17222904  0.45078886  1
  H  H10  1  0.34757512  0.32989250  0.45178580  1
  H  H11  1  0.63482510  0.17464520  0.51162920  1
  H  H12  1  0.63838926  0.32162781  0.51327920  1
  H  H13  1  0.53399717  0.24740628  0.66529307  1
  H  H14  1  0.96057628  0.24431386  0.20671136  1
  H  H15  1  0.84732750  0.16883094  0.04618579  1
  H  H16  1  0.84680027  0.32647543  0.05187499  1
  H  H17  1  0.13844002  0.17762202  0.98573370  1
  H  H18  1  0.13504238  0.32437093  0.98816609  1
  H  H19  1  0.03373705  0.25270269  0.83456672  1
  H  H20  1  0.53869376  0.75043069  0.70682855  1
  H  H21  1  0.65373870  0.67243095  0.55054842  1
  H  H22  1  0.65177351  0.83028312  0.54875944  1
  H  H23  1  0.36270179  0.82286934  0.48563292  1
  H  H24  1  0.36431000  0.67620041  0.48789867  1
  H  H25  1  0.46672327  0.75123701  0.33441970  1
  H  H26  1  0.03735086  0.74588960  0.79325164  1
  H  H27  1  0.15152183  0.82686661  0.94722591  1
  H  H28  1  0.15106118  0.66911913  0.95366315  1
  H  H29  1  0.86210046  0.82220801  0.01105340  1
  H  H30  1  0.86176092  0.67529498  0.01514887  1
  H  H31  1  0.96509928  0.74935027  0.16549845  1
  Ge  Ge32  1  0.48441977  0.00034098  0.99175096  1
  Ge  Ge33  1  0.99308605  0.50323262  0.47969923  1
  Sn  Sn34  1  0.98801709  0.00396833  0.50620700  1
  Sn  Sn35  1  0.50194464  0.50205844  0.98508941  1
  Br  Br36  1  0.48835567  0.24691430  0.95269157  1
  Br  Br37  1  0.21705525  0.01002515  0.17784165  1
  Br  Br38  1  0.70183120  0.01411372  0.31398399  1
  Br  Br39  1  0.98686391  0.25648176  0.54859407  1
  Br  Br40  1  0.32281363  0.98750624  0.70614311  1
  Br  Br41  1  0.80996913  0.98894795  0.80672977  1
  Br  Br42  1  0.51235370  0.75897635  0.04654495  1
  Br  Br43  1  0.71207850  0.49147670  0.31959741  1
  Br  Br44  1  0.17559578  0.48702021  0.20707322  1
  Br  Br45  1  0.01315037  0.74440609  0.45269586  1
  Br  Br46  1  0.30754787  0.51209073  0.69303160  1
  Br  Br47  1  0.79852240  0.51335374  0.81321856  1
