# generated using pymatgen
data_CdGeH12C2(Br3N)2
_symmetry_space_group_name_H-M   'P 1'
_cell_length_a   7.85391712
_cell_length_b   11.17842204
_cell_length_c   7.72695559
_cell_angle_alpha   89.93030412
_cell_angle_beta   90.00467683
_cell_angle_gamma   90.00220414
_symmetry_Int_Tables_number   1
_chemical_formula_structural   CdGeH12C2(Br3N)2
_chemical_formula_sum   'Cd2 Ge2 H24 C4 Br12 N4'
_cell_volume   678.38292772
_cell_formula_units_Z   2
loop_
 _symmetry_equiv_pos_site_id
 _symmetry_equiv_pos_as_xyz
  1  'x, y, z'
loop_
 _atom_site_type_symbol
 _atom_site_label
 _atom_site_symmetry_multiplicity
 _atom_site_fract_x
 _atom_site_fract_y
 _atom_site_fract_z
 _atom_site_occupancy
  C  C0  1  0.39744241  0.25008477  0.41303936  1
  C  C1  1  0.89841276  0.25004212  0.08766876  1
  C  C2  1  0.60255473  0.74992088  0.58697532  1
  C  C3  1  0.10159232  0.74995991  0.91234218  1
  N  N4  1  0.54934573  0.24999223  0.52586552  1
  N  N5  1  0.04977265  0.24997731  0.97410998  1
  N  N6  1  0.45065107  0.75001273  0.47414971  1
  N  N7  1  0.95023317  0.75002140  0.02590171  1
  H  H8  1  0.43899383  0.25014038  0.27811103  1
  H  H9  1  0.32280232  0.17000616  0.43996510  1
  H  H10  1  0.32313768  0.33026013  0.43975620  1
  H  H11  1  0.62301944  0.17491987  0.50086581  1
  H  H12  1  0.62322890  0.32494364  0.50032050  1
  H  H13  1  0.51754702  0.25016147  0.65700814  1
  H  H14  1  0.94065660  0.25003332  0.22238390  1
  H  H15  1  0.82386321  0.16988152  0.06145064  1
  H  H16  1  0.82374614  0.33014936  0.06106043  1
  H  H17  1  0.12365294  0.17500091  0.99938705  1
  H  H18  1  0.12365554  0.32502735  0.99873155  1
  H  H19  1  0.01736719  0.24979939  0.84312531  1
  H  H20  1  0.56100391  0.74986832  0.72190381  1
  H  H21  1  0.67685757  0.66974408  0.56026178  1
  H  H22  1  0.67719651  0.82999812  0.56004611  1
  H  H23  1  0.37697797  0.82508567  0.49914842  1
  H  H24  1  0.37676786  0.67506150  0.49969758  1
  H  H25  1  0.48244914  0.74984208  0.34300713  1
  H  H26  1  0.05934761  0.74997023  0.77762737  1
  H  H27  1  0.17614080  0.83012064  0.93856255  1
  H  H28  1  0.17626033  0.66985273  0.93894686  1
  H  H29  1  0.87634994  0.82499660  0.00062615  1
  H  H30  1  0.87635295  0.67497009  0.00127920  1
  H  H31  1  0.98263907  0.75019939  0.15688623  1
  Ge  Ge32  1  0.50000043  0.00000369  0.00000965  1
  Ge  Ge33  1  0.99999074  0.50000483  0.49998871  1
  Cd  Cd34  1  0.99999978  0.00000523  0.50001025  1
  Cd  Cd35  1  0.50000051  0.50000632  0.99998887  1
  Br  Br36  1  0.47771590  0.24948528  0.94855037  1
  Br  Br37  1  0.19274285  0.00731158  0.18970247  1
  Br  Br38  1  0.69292715  0.00735987  0.31082260  1
  Br  Br39  1  0.97706690  0.25050264  0.55184974  1
  Br  Br40  1  0.30707212  0.99264455  0.68919191  1
  Br  Br41  1  0.80725969  0.99268794  0.81031590  1
  Br  Br42  1  0.52228879  0.75051669  0.05146835  1
  Br  Br43  1  0.69271074  0.49262407  0.31024248  1
  Br  Br44  1  0.19295729  0.49270333  0.18918026  1
  Br  Br45  1  0.02292887  0.74949938  0.44816294  1
  Br  Br46  1  0.30729591  0.50737947  0.68976873  1
  Br  Br47  1  0.80704675  0.50729911  0.81083197  1
