# generated using pymatgen
data_SrGeH12C2(Br3N)2
_symmetry_space_group_name_H-M   'P 1'
_cell_length_a   8.08202279
_cell_length_b   11.53561665
_cell_length_c   7.86064245
_cell_angle_alpha   88.89659008
_cell_angle_beta   90.00497017
_cell_angle_gamma   90.00438697
_symmetry_Int_Tables_number   1
_chemical_formula_structural   SrGeH12C2(Br3N)2
_chemical_formula_sum   'Sr2 Ge2 H24 C4 Br12 N4'
_cell_volume   732.72057350
_cell_formula_units_Z   2
loop_
 _symmetry_equiv_pos_site_id
 _symmetry_equiv_pos_as_xyz
  1  'x, y, z'
loop_
 _atom_site_type_symbol
 _atom_site_label
 _atom_site_symmetry_multiplicity
 _atom_site_fract_x
 _atom_site_fract_y
 _atom_site_fract_z
 _atom_site_occupancy
  C  C0  1  0.39507921  0.25028583  0.41305075  1
  C  C1  1  0.89606535  0.24984193  0.08789635  1
  C  C2  1  0.60491741  0.74971884  0.58696241  1
  C  C3  1  0.10393971  0.75015991  0.91211536  1
  N  N4  1  0.54400287  0.24948442  0.52286856  1
  N  N5  1  0.04435973  0.25051350  0.97721558  1
  N  N6  1  0.45599474  0.75052134  0.47714321  1
  N  N7  1  0.95564602  0.74948492  0.02279717  1
  H  H8  1  0.43449062  0.25051591  0.27993014  1
  H  H9  1  0.32382123  0.17181898  0.44078571  1
  H  H10  1  0.32209562  0.32748254  0.43918992  1
  H  H11  1  0.61503258  0.17682877  0.49714872  1
  H  H12  1  0.61553798  0.32273664  0.49728024  1
  H  H13  1  0.51387205  0.24752344  0.65206514  1
  H  H14  1  0.93620233  0.24962721  0.22075725  1
  H  H15  1  0.82278578  0.17267703  0.06220998  1
  H  H16  1  0.82477480  0.32836289  0.06054070  1
  H  H17  1  0.11593719  0.17722111  0.00256497  1
  H  H18  1  0.11564865  0.32314258  0.00256558  1
  H  H19  1  0.01363059  0.25244419  0.84823349  1
  H  H20  1  0.56550749  0.74949033  0.72008235  1
  H  H21  1  0.67789940  0.67252089  0.56082331  1
  H  H22  1  0.67617795  0.82818465  0.55922509  1
  H  H23  1  0.38496464  0.82317725  0.50286532  1
  H  H24  1  0.38445802  0.67726898  0.50273282  1
  H  H25  1  0.48612424  0.75248250  0.34794867  1
  H  H26  1  0.06380137  0.75037715  0.77925462  1
  H  H27  1  0.17721864  0.82732455  0.93780455  1
  H  H28  1  0.17523093  0.67163872  0.93946635  1
  H  H29  1  0.88406621  0.82277616  0.99745019  1
  H  H30  1  0.88435971  0.67685477  0.99744675  1
  H  H31  1  0.98637637  0.74755380  0.15177945  1
  Ge  Ge32  1  0.50000330  0.00000246  0.00000853  1
  Ge  Ge33  1  0.99999740  0.50000215  0.50000287  1
  Sr  Sr34  1  0.00000167  0.00000242  0.50000782  1
  Sr  Sr35  1  0.49999873  0.50000355  0.00000267  1
  Br  Br36  1  0.47298752  0.24140905  0.94136314  1
  Br  Br37  1  0.19471340  0.00911869  0.17086606  1
  Br  Br38  1  0.67230186  0.01492901  0.31216971  1
  Br  Br39  1  0.97243929  0.25859058  0.55911750  1
  Br  Br40  1  0.32770010  0.98507665  0.68784861  1
  Br  Br41  1  0.80529338  0.99088255  0.82915169  1
  Br  Br42  1  0.52701683  0.75859757  0.05865093  1
  Br  Br43  1  0.69472996  0.49074052  0.32905385  1
  Br  Br44  1  0.17241194  0.48516020  0.18789309  1
  Br  Br45  1  0.02755661  0.74141357  0.44089588  1
  Br  Br46  1  0.30526656  0.50926356  0.67095167  1
  Br  Br47  1  0.82758579  0.51484405  0.81211188  1
