# generated using pymatgen
data_TlAsH12C2(Br3N)2
_symmetry_space_group_name_H-M   'P 1'
_cell_length_a   8.12873215
_cell_length_b   11.53319511
_cell_length_c   7.87015048
_cell_angle_alpha   86.25041287
_cell_angle_beta   90.00076333
_cell_angle_gamma   90.03423147
_symmetry_Int_Tables_number   1
_chemical_formula_structural   TlAsH12C2(Br3N)2
_chemical_formula_sum   'Tl2 As2 H24 C4 Br12 N4'
_cell_volume   736.24907451
_cell_formula_units_Z   2
loop_
 _symmetry_equiv_pos_site_id
 _symmetry_equiv_pos_as_xyz
  1  'x, y, z'
loop_
 _atom_site_type_symbol
 _atom_site_label
 _atom_site_symmetry_multiplicity
 _atom_site_fract_x
 _atom_site_fract_y
 _atom_site_fract_z
 _atom_site_occupancy
  C  C0  1  0.39702601  0.24979417  0.41309085  1
  C  C1  1  0.89791025  0.25025986  0.08776263  1
  C  C2  1  0.60296990  0.75021009  0.58692191  1
  C  C3  1  0.10209611  0.74974198  0.91224758  1
  N  N4  1  0.54593154  0.24742620  0.52216734  1
  N  N5  1  0.04629861  0.25255824  0.97794519  1
  N  N6  1  0.45406379  0.75257955  0.47784665  1
  N  N7  1  0.95370764  0.74744038  0.02206536  1
  H  H8  1  0.43546187  0.25228844  0.27965928  1
  H  H9  1  0.32607818  0.17071054  0.44394717  1
  H  H10  1  0.32466245  0.32662768  0.43751184  1
  H  H11  1  0.61695345  0.17568583  0.49830431  1
  H  H12  1  0.61683459  0.32165584  0.49540687  1
  H  H13  1  0.51656064  0.24242121  0.65172405  1
  H  H14  1  0.93700495  0.24775831  0.22099798  1
  H  H15  1  0.82520017  0.17344087  0.06374251  1
  H  H16  1  0.82703938  0.32937263  0.05731626  1
  H  H17  1  0.11712739  0.17832765  0.00442438  1
  H  H18  1  0.11760707  0.32429905  0.00139129  1
  H  H19  1  0.01634933  0.25753032  0.84852811  1
  H  H20  1  0.56453553  0.74771705  0.72035487  1
  H  H21  1  0.67533216  0.67337525  0.56250171  1
  H  H22  1  0.67392066  0.82929290  0.55606493  1
  H  H23  1  0.38304399  0.82432006  0.50171050  1
  H  H24  1  0.38316070  0.67835047  0.50460695  1
  H  H25  1  0.48343503  0.75758469  0.34829043  1
  H  H26  1  0.06300067  0.75224532  0.77901323  1
  H  H27  1  0.17480410  0.82656068  0.93627095  1
  H  H28  1  0.17296706  0.67062956  0.94269143  1
  H  H29  1  0.88287578  0.82167025  0.99558808  1
  H  H30  1  0.88240086  0.67569826  0.99861820  1
  H  H31  1  0.98365630  0.74246783  0.15148331  1
  As  As32  1  0.50000289  0.00000254  0.00000878  1
  As  As33  1  0.99999796  0.50000199  0.50000314  1
  Tl  Tl34  1  0.00000134  0.00000218  0.50000844  1
  Tl  Tl35  1  0.49999946  0.50000350  0.00000175  1
  Br  Br36  1  0.47511016  0.23026980  0.94142330  1
  Br  Br37  1  0.20997529  0.00251675  0.15890036  1
  Br  Br38  1  0.65444334  0.01727327  0.29757725  1
  Br  Br39  1  0.97460476  0.26974893  0.55896001  1
  Br  Br40  1  0.34556099  0.98273311  0.70244138  1
  Br  Br41  1  0.79003099  0.99748559  0.84111729  1
  Br  Br42  1  0.52489532  0.76973680  0.05859298  1
  Br  Br43  1  0.71014020  0.49733350  0.34078725  1
  Br  Br44  1  0.15474339  0.48282020  0.20258773  1
  Br  Br45  1  0.02539086  0.73025505  0.44105083  1
  Br  Br46  1  0.28985670  0.50267073  0.65921937  1
  Br  Br47  1  0.84525392  0.51718320  0.79742059  1
