# generated using pymatgen
data_AsH12AuC2(Br3N)2
_symmetry_space_group_name_H-M   'P 1'
_cell_length_a   7.55843450
_cell_length_b   11.71084501
_cell_length_c   7.97178822
_cell_angle_alpha   85.15796688
_cell_angle_beta   77.91185580
_cell_angle_gamma   88.03493261
_symmetry_Int_Tables_number   1
_chemical_formula_structural   AsH12AuC2(Br3N)2
_chemical_formula_sum   'As2 H24 Au2 C4 Br12 N4'
_cell_volume   687.41951860
_cell_formula_units_Z   2
loop_
 _symmetry_equiv_pos_site_id
 _symmetry_equiv_pos_as_xyz
  1  'x, y, z'
loop_
 _atom_site_type_symbol
 _atom_site_label
 _atom_site_symmetry_multiplicity
 _atom_site_fract_x
 _atom_site_fract_y
 _atom_site_fract_z
 _atom_site_occupancy
  C  C0  1  0.44228709  0.25142713  0.38213872  1
  C  C1  1  0.92969179  0.25664241  0.09580608  1
  C  C2  1  0.53454217  0.74297410  0.62081175  1
  C  C3  1  0.05322314  0.74963254  0.91592913  1
  N  N4  1  0.55272931  0.24256826  0.51581080  1
  N  N5  1  0.05232140  0.24903352  0.92577384  1
  N  N6  1  0.48520641  0.74766655  0.44986646  1
  N  N7  1  0.94509362  0.75108585  0.09384959  1
  H  H8  1  0.53303365  0.25279024  0.25600111  1
  H  H9  1  0.35444700  0.17714459  0.40029154  1
  H  H10  1  0.36215914  0.33077834  0.39283732  1
  H  H11  1  0.62909266  0.16753725  0.51040889  1
  H  H12  1  0.64148869  0.31026701  0.49875084  1
  H  H13  1  0.47794275  0.24239608  0.64131151  1
  H  H14  1  0.01028189  0.24718270  0.19517446  1
  H  H15  1  0.83195114  0.18753482  0.11467913  1
  H  H16  1  0.86095946  0.34040172  0.09777439  1
  H  H17  1  0.11817867  0.16997014  0.91631795  1
  H  H18  1  0.15178493  0.31040645  0.90362355  1
  H  H19  1  0.98479484  0.26051002  0.82380916  1
  H  H20  1  0.42459756  0.78067063  0.71159262  1
  H  H21  1  0.55787942  0.65361104  0.66367044  1
  H  H22  1  0.65781524  0.79188623  0.61062498  1
  H  H23  1  0.51664499  0.82699593  0.38178219  1
  H  H24  1  0.34764535  0.73428012  0.45917509  1
  H  H25  1  0.55568610  0.68415687  0.37784522  1
  H  H26  1  0.96048764  0.74963451  0.82774013  1
  H  H27  1  0.13632281  0.82631081  0.88709746  1
  H  H28  1  0.13834547  0.67195097  0.90724221  1
  H  H29  1  0.85946983  0.82236996  0.10766177  1
  H  H30  1  0.86587606  0.67867123  0.12837917  1
  H  H31  1  0.02501474  0.75220849  0.18555353  1
  As  As32  1  0.49496439  0.00225155  0.99091202  1
  As  As33  1  0.00894379  0.50058049  0.51031439  1
  Au  Au34  1  0.99248996  0.00150486  0.49717871  1
  Au  Au35  1  0.50206147  0.50092935  0.00495974  1
  Br  Br36  1  0.50215994  0.23347517  0.94112788  1
  Br  Br37  1  0.15096092  0.00610495  0.19074825  1
  Br  Br38  1  0.65787782  0.99479884  0.26883232  1
  Br  Br39  1  0.97544509  0.27796207  0.53606584  1
  Br  Br40  1  0.33491717  0.01195588  0.73287834  1
  Br  Br41  1  0.84094979  0.00059501  0.80434774  1
  Br  Br42  1  0.49593634  0.77887920  0.03492758  1
  Br  Br43  1  0.72398079  0.51435867  0.34137471  1
  Br  Br44  1  0.18787452  0.49115022  0.16787140  1
  Br  Br45  1  0.03904118  0.72902143  0.47829521  1
  Br  Br46  1  0.27858382  0.48160235  0.65954901  1
  Br  Br47  1  0.81684173  0.51421170  0.84158240  1
