# generated using pymatgen
data_InBH12C2(I3N)2
_symmetry_space_group_name_H-M   'P 1'
_cell_length_a   9.15539742
_cell_length_b   10.16435336
_cell_length_c   9.27264077
_cell_angle_alpha   90.88015189
_cell_angle_beta   89.13304756
_cell_angle_gamma   89.37530656
_symmetry_Int_Tables_number   1
_chemical_formula_structural   InBH12C2(I3N)2
_chemical_formula_sum   'In2 B2 H24 C4 I12 N4'
_cell_volume   862.64575674
_cell_formula_units_Z   2
loop_
 _symmetry_equiv_pos_site_id
 _symmetry_equiv_pos_as_xyz
  1  'x, y, z'
loop_
 _atom_site_type_symbol
 _atom_site_label
 _atom_site_symmetry_multiplicity
 _atom_site_fract_x
 _atom_site_fract_y
 _atom_site_fract_z
 _atom_site_occupancy
  C  C0  1  0.47905108  0.23029624  0.45406318  1
  C  C1  1  0.96484733  0.23767866  0.06100547  1
  C  C2  1  0.52974787  0.76158633  0.56275109  1
  C  C3  1  0.07225085  0.74119505  0.94903770  1
  N  N4  1  0.57494480  0.24179836  0.58194663  1
  N  N5  1  0.03794576  0.28240600  0.92616279  1
  N  N6  1  0.41635892  0.74900171  0.44894582  1
  N  N7  1  0.92345294  0.76887076  0.00918439  1
  H  H8  1  0.52491774  0.28962188  0.36707207  1
  H  H9  1  0.47635342  0.12708076  0.41873490  1
  H  H10  1  0.36949224  0.26635272  0.48478351  1
  H  H11  1  0.68256024  0.21519491  0.55746542  1
  H  H12  1  0.57521768  0.33693084  0.62495829  1
  H  H13  1  0.53923111  0.18202537  0.66477931  1
  H  H14  1  0.04671809  0.22323489  0.14403619  1
  H  H15  1  0.90919036  0.14512243  0.03773256  1
  H  H16  1  0.88508415  0.31324488  0.09581312  1
  H  H17  1  0.09575727  0.20685338  0.87335948  1
  H  H18  1  0.11057028  0.35817073  0.94384054  1
  H  H19  1  0.96020809  0.31929528  0.85559216  1
  H  H20  1  0.47681460  0.74801368  0.66795059  1
  H  H21  1  0.61326071  0.68518855  0.54331980  1
  H  H22  1  0.57954583  0.85871273  0.55551234  1
  H  H23  1  0.33487955  0.82039961  0.46106799  1
  H  H24  1  0.36500570  0.65850370  0.45322514  1
  H  H25  1  0.46133271  0.75936804  0.34658292  1
  H  H26  1  0.06589037  0.65968090  0.87070757  1
  H  H27  1  0.11101869  0.82947445  0.89474528  1
  H  H28  1  0.14563304  0.71495830  0.03621631  1
  H  H29  1  0.86291449  0.82168338  0.93437610  1
  H  H30  1  0.86744531  0.68270041  0.02953446  1
  H  H31  1  0.92103845  0.82623104  0.10368651  1
  B  B32  1  0.41145408  0.00574172  0.98475429  1
  B  B33  1  0.95984131  0.50257850  0.40326639  1
  In  In34  1  0.04088233  0.97428509  0.47645662  1
  In  In35  1  0.45594860  0.48981061  0.01944937  1
  I  I36  1  0.55912740  0.17819245  0.00815928  1
  I  I37  1  0.25669006  0.00034236  0.17824780  1
  I  I38  1  0.77248059  0.96825767  0.29843394  1
  I  I39  1  0.96692820  0.30710878  0.51563557  1
  I  I40  1  0.29579239  0.02839904  0.76860563  1
  I  I41  1  0.84243679  0.00623839  0.74327692  1
  I  I42  1  0.53245677  0.81214231  0.97827449  1
  I  I43  1  0.74558496  0.51860638  0.28389462  1
  I  I44  1  0.16138392  0.50828337  0.25428521  1
  I  I45  1  0.97013484  0.67198194  0.55926693  1
  I  I46  1  0.30799860  0.47672346  0.72889994  1
  I  I47  1  0.74220322  0.49051022  0.84119993  1
