# generated using pymatgen
data_InAsH12C2(Br3N)2
_symmetry_space_group_name_H-M   'P 1'
_cell_length_a   8.09339996
_cell_length_b   11.40771396
_cell_length_c   7.83724861
_cell_angle_alpha   87.13888406
_cell_angle_beta   89.99979185
_cell_angle_gamma   90.03224562
_symmetry_Int_Tables_number   1
_chemical_formula_structural   InAsH12C2(Br3N)2
_chemical_formula_sum   'In2 As2 H24 C4 Br12 N4'
_cell_volume   722.68905695
_cell_formula_units_Z   2
loop_
 _symmetry_equiv_pos_site_id
 _symmetry_equiv_pos_as_xyz
  1  'x, y, z'
loop_
 _atom_site_type_symbol
 _atom_site_label
 _atom_site_symmetry_multiplicity
 _atom_site_fract_x
 _atom_site_fract_y
 _atom_site_fract_z
 _atom_site_occupancy
  C  C0  1  0.39901491  0.24945097  0.41487975  1
  C  C1  1  0.89991279  0.25062204  0.08590405  1
  C  C2  1  0.60098199  0.75055358  0.58513385  1
  C  C3  1  0.10009275  0.74937958  0.91410713  1
  N  N4  1  0.54853310  0.24763647  0.52423369  1
  N  N5  1  0.04891011  0.25235820  0.97577853  1
  N  N6  1  0.45146301  0.75236992  0.47577980  1
  N  N7  1  0.95109518  0.74764014  0.02423201  1
  H  H8  1  0.43757998  0.25159834  0.28100913  1
  H  H9  1  0.32759485  0.16977388  0.44473892  1
  H  H10  1  0.32642073  0.32724232  0.44037536  1
  H  H11  1  0.61988900  0.17489249  0.49988133  1
  H  H12  1  0.61996650  0.32216953  0.49741999  1
  H  H13  1  0.51909420  0.24387742  0.65412640  1
  H  H14  1  0.93912044  0.24848412  0.21955672  1
  H  H15  1  0.82698084  0.17284537  0.06081978  1
  H  H16  1  0.82856007  0.33032637  0.05641095  1
  H  H17  1  0.12028250  0.17780902  0.00233643  1
  H  H18  1  0.12055811  0.32509101  0.99973801  1
  H  H19  1  0.01890634  0.25608219  0.84605849  1
  H  H20  1  0.56241714  0.74840757  0.71900418  1
  H  H21  1  0.67357374  0.67276163  0.55963853  1
  H  H22  1  0.67240338  0.83022990  0.55527339  1
  H  H23  1  0.38010813  0.82511368  0.50013249  1
  H  H24  1  0.38002880  0.67783644  0.50259368  1
  H  H25  1  0.48090190  0.75612856  0.34588741  1
  H  H26  1  0.06088525  0.75151887  0.78045427  1
  H  H27  1  0.17302292  0.82715673  0.93919374  1
  H  H28  1  0.17144715  0.66967582  0.94359774  1
  H  H29  1  0.87972044  0.82218825  0.99767544  1
  H  H30  1  0.87944988  0.67490599  0.00027064  1
  H  H31  1  0.98109832  0.74391565  0.15395244  1
  As  As32  1  0.50000223  0.00000200  0.00000846  1
  As  As33  1  0.99999849  0.50000226  0.50000140  1
  In  In34  1  0.99999929  0.00000269  0.50000907  1
  In  In35  1  0.50000261  0.50000241  0.99999896  1
  Br  Br36  1  0.47786971  0.23404042  0.94661803  1
  Br  Br37  1  0.21292336  0.00340261  0.17105699  1
  Br  Br38  1  0.66682665  0.01490370  0.29505548  1
  Br  Br39  1  0.97731082  0.26600472  0.55375583  1
  Br  Br40  1  0.33317848  0.98510265  0.70496482  1
  Br  Br41  1  0.78708485  0.99659923  0.82896053  1
  Br  Br42  1  0.52213492  0.76596639  0.05339752  1
  Br  Br43  1  0.71308029  0.49650620  0.32861514  1
  Br  Br44  1  0.16715266  0.48517160  0.20510284  1
  Br  Br45  1  0.02268497  0.73399891  0.44625549  1
  Br  Br46  1  0.28691720  0.50349852  0.67139239  1
  Br  Br47  1  0.83284274  0.51483194  0.79490938  1
