# generated using pymatgen
data_AgAsH12C2(Br3N)2
_symmetry_space_group_name_H-M   'P 1'
_cell_length_a   7.85690803
_cell_length_b   11.02389781
_cell_length_c   7.71390094
_cell_angle_alpha   87.96480731
_cell_angle_beta   90.02442605
_cell_angle_gamma   90.02614002
_symmetry_Int_Tables_number   1
_chemical_formula_structural   AgAsH12C2(Br3N)2
_chemical_formula_sum   'Ag2 As2 H24 C4 Br12 N4'
_cell_volume   667.70831728
_cell_formula_units_Z   2
loop_
 _symmetry_equiv_pos_site_id
 _symmetry_equiv_pos_as_xyz
  1  'x, y, z'
loop_
 _atom_site_type_symbol
 _atom_site_label
 _atom_site_symmetry_multiplicity
 _atom_site_fract_x
 _atom_site_fract_y
 _atom_site_fract_z
 _atom_site_occupancy
  C  C0  1  0.40694067  0.24822973  0.41632201  1
  C  C1  1  0.90789052  0.25186051  0.08412152  1
  C  C2  1  0.59305455  0.75177375  0.58368968  1
  C  C3  1  0.09211647  0.74814369  0.91589066  1
  N  N4  1  0.55939607  0.24615372  0.52874715  1
  N  N5  1  0.05982247  0.25386820  0.97109904  1
  N  N6  1  0.44059914  0.75385129  0.47126448  1
  N  N7  1  0.94018472  0.74613248  0.02891342  1
  H  H8  1  0.44793030  0.25165133  0.28097206  1
  H  H9  1  0.33277059  0.16613867  0.44353621  1
  H  H10  1  0.33231967  0.32859050  0.44362728  1
  H  H11  1  0.63309173  0.17068363  0.50496626  1
  H  H12  1  0.63340890  0.32255740  0.50224352  1
  H  H13  1  0.52811853  0.24394173  0.66025613  1
  H  H14  1  0.94952827  0.24847450  0.21929598  1
  H  H15  1  0.83296077  0.17151765  0.05719657  1
  H  H16  1  0.83377019  0.33398305  0.05717404  1
  H  H17  1  0.13378975  0.17743540  0.99739991  1
  H  H18  1  0.13377268  0.32931235  0.99450461  1
  H  H19  1  0.02795524  0.25602155  0.83970953  1
  H  H20  1  0.55206503  0.74835011  0.71903965  1
  H  H21  1  0.66767549  0.67141342  0.55638186  1
  H  H22  1  0.66722456  0.83386517  0.55647768  1
  H  H23  1  0.36690398  0.82932143  0.49504610  1
  H  H24  1  0.36658578  0.67744768  0.49776661  1
  H  H25  1  0.47187708  0.75606413  0.33975560  1
  H  H26  1  0.05047845  0.75153153  0.78071625  1
  H  H27  1  0.16704446  0.82848682  0.94281837  1
  H  H28  1  0.16623856  0.66602157  0.94283530  1
  H  H29  1  0.86621555  0.82256464  0.00261484  1
  H  H30  1  0.86623636  0.67068779  0.00550594  1
  H  H31  1  0.97205200  0.74397787  0.16030290  1
  As  As32  1  0.50000334  0.00000072  0.00000459  1
  As  As33  1  1.00000013  0.50000194  0.50000827  1
  Ag  Ag34  1  0.99999883  0.00000348  0.49999721  1
  Ag  Ag35  1  0.49999905  0.49999879  0.00001305  1
  Br  Br36  1  0.48499532  0.24314688  0.95240444  1
  Br  Br37  1  0.21037556  0.00248164  0.18777629  1
  Br  Br38  1  0.68733763  0.00770434  0.29315576  1
  Br  Br39  1  0.98441296  0.25684308  0.54779083  1
  Br  Br40  1  0.31266473  0.99230079  0.70686263  1
  Br  Br41  1  0.78962503  0.99751952  0.81224037  1
  Br  Br42  1  0.51501101  0.75685774  0.04760810  1
  Br  Br43  1  0.71035458  0.49746492  0.31192781  1
  Br  Br44  1  0.18737933  0.49246006  0.20705147  1
  Br  Br45  1  0.01558311  0.74315841  0.45222445  1
  Br  Br46  1  0.28964345  0.50253786  0.68808276  1
  Br  Br47  1  0.81262118  0.50754480  0.79295738  1
