# generated using pymatgen
data_SrH12PbC2(Br3N)2
_symmetry_space_group_name_H-M   'P 1'
_cell_length_a   8.28018363
_cell_length_b   11.83763388
_cell_length_c   7.96863302
_cell_angle_alpha   90.09212801
_cell_angle_beta   90.00244188
_cell_angle_gamma   90.00095743
_symmetry_Int_Tables_number   1
_chemical_formula_structural   SrH12PbC2(Br3N)2
_chemical_formula_sum   'Sr2 H24 Pb2 C4 Br12 N4'
_cell_volume   781.06672585
_cell_formula_units_Z   2
loop_
 _symmetry_equiv_pos_site_id
 _symmetry_equiv_pos_as_xyz
  1  'x, y, z'
loop_
 _atom_site_type_symbol
 _atom_site_label
 _atom_site_symmetry_multiplicity
 _atom_site_fract_x
 _atom_site_fract_y
 _atom_site_fract_z
 _atom_site_occupancy
  C  C0  1  0.39461433  0.24998192  0.41380692  1
  C  C1  1  0.89528353  0.25014433  0.08679549  1
  C  C2  1  0.60538197  0.75002391  0.58620321  1
  C  C3  1  0.10472445  0.74985901  0.91321447  1
  N  N4  1  0.54078791  0.25003486  0.52133622  1
  N  N5  1  0.04110638  0.25000267  0.97876887  1
  N  N6  1  0.45920704  0.74996845  0.47867574  1
  N  N7  1  0.95890219  0.74999541  0.02124201  1
  H  H8  1  0.43244264  0.25012143  0.28216327  1
  H  H9  1  0.32413530  0.17409880  0.44058991  1
  H  H10  1  0.32455455  0.32610362  0.44082338  1
  H  H11  1  0.61016793  0.17869668  0.49530651  1
  H  H12  1  0.61015472  0.32127358  0.49526163  1
  H  H13  1  0.51204238  0.25020195  0.64898243  1
  H  H14  1  0.93357572  0.25003098  0.21829881  1
  H  H15  1  0.82505884  0.17404362  0.06010890  1
  H  H16  1  0.82478905  0.32605897  0.06023334  1
  H  H17  1  0.11048137  0.17873397  0.00465956  1
  H  H18  1  0.11061542  0.32131092  0.00453995  1
  H  H19  1  0.01197803  0.24981620  0.85120968  1
  H  H20  1  0.56755534  0.74988480  0.71784724  1
  H  H21  1  0.67544167  0.67390149  0.55918698  1
  H  H22  1  0.67586042  0.82590632  0.55941753  1
  H  H23  1  0.38982730  0.82130792  0.50470555  1
  H  H24  1  0.38984024  0.67873128  0.50475243  1
  H  H25  1  0.48795133  0.74980128  0.35102934  1
  H  H26  1  0.06643141  0.74997554  0.78171118  1
  H  H27  1  0.17494753  0.82595979  0.93990521  1
  H  H28  1  0.17522048  0.67394447  0.93977059  1
  H  H29  1  0.88952445  0.82126378  0.99535501  1
  H  H30  1  0.88939511  0.67868687  0.99546817  1
  H  H31  1  0.98803123  0.75018031  0.14880079  1
  Sr  Sr32  1  0.50000854  0.00000105  0.00000834  1
  Sr  Sr33  1  0.99999142  0.50000113  0.50000614  1
  Pb  Pb34  1  0.00000668  0.00000087  0.50000721  1
  Pb  Pb35  1  0.49999383  0.50000090  0.00000928  1
  Br  Br36  1  0.46909612  0.25032815  0.93351940  1
  Br  Br37  1  0.17660971  0.01783001  0.17118363  1
  Br  Br38  1  0.67765731  0.01767668  0.32965271  1
  Br  Br39  1  0.96884590  0.24967283  0.56673470  1
  Br  Br40  1  0.32235558  0.98233080  0.67036462  1
  Br  Br41  1  0.82340626  0.98217249  0.82883149  1
  Br  Br42  1  0.53091259  0.74967428  0.06649231  1
  Br  Br43  1  0.67657867  0.48208619  0.32881591  1
  Br  Br44  1  0.17767878  0.48245452  0.17036960  1
  Br  Br45  1  0.03115450  0.75032954  0.43327669  1
  Br  Br46  1  0.32339512  0.51792452  0.67121220  1
  Br  Br47  1  0.82230248  0.51754919  0.82964207  1
