# generated using pymatgen
data_SrHgH12C2(Br3N)2
_symmetry_space_group_name_H-M   'P 1'
_cell_length_a   8.04401031
_cell_length_b   11.63875687
_cell_length_c   7.85223738
_cell_angle_alpha   90.70076651
_cell_angle_beta   90.00789908
_cell_angle_gamma   90.00541148
_symmetry_Int_Tables_number   1
_chemical_formula_structural   SrHgH12C2(Br3N)2
_chemical_formula_sum   'Sr2 Hg2 H24 C4 Br12 N4'
_cell_volume   735.08937365
_cell_formula_units_Z   2
loop_
 _symmetry_equiv_pos_site_id
 _symmetry_equiv_pos_as_xyz
  1  'x, y, z'
loop_
 _atom_site_type_symbol
 _atom_site_label
 _atom_site_symmetry_multiplicity
 _atom_site_fract_x
 _atom_site_fract_y
 _atom_site_fract_z
 _atom_site_occupancy
  C  C0  1  0.39373179  0.24980274  0.41216057  1
  C  C1  1  0.89477205  0.25037326  0.08881399  1
  C  C2  1  0.60626509  0.75020156  0.58785148  1
  C  C3  1  0.10523393  0.74962865  0.91119885  1
  N  N4  1  0.54296521  0.25033305  0.52260113  1
  N  N5  1  0.04339907  0.24968898  0.97757702  1
  N  N6  1  0.45703128  0.74967210  0.47741162  1
  N  N7  1  0.95660825  0.75030933  0.02243770  1
  H  H8  1  0.43360388  0.25010297  0.27897253  1
  H  H9  1  0.32004814  0.17332048  0.43832693  1
  H  H10  1  0.32205595  0.32747499  0.43956147  1
  H  H11  1  0.61512413  0.17788599  0.49792520  1
  H  H12  1  0.61464381  0.32231141  0.49664639  1
  H  H13  1  0.51258060  0.25206305  0.65203564  1
  H  H14  1  0.93542070  0.25011618  0.22177973  1
  H  H15  1  0.82279956  0.17272727  0.06197699  1
  H  H16  1  0.82106898  0.32689709  0.06300490  1
  H  H17  1  0.11506413  0.17766977  0.00319921  1
  H  H18  1  0.11577606  0.32209295  0.00184410  1
  H  H19  1  0.01233615  0.24795397  0.84828474  1
  H  H20  1  0.56639364  0.74990327  0.72103978  1
  H  H21  1  0.67793896  0.67252811  0.56045206  1
  H  H22  1  0.67995088  0.82668268  0.56168338  1
  H  H23  1  0.38487335  0.82211938  0.50208794  1
  H  H24  1  0.38535214  0.67769401  0.50336637  1
  H  H25  1  0.48741576  0.74794208  0.34797707  1
  H  H26  1  0.06458365  0.74988792  0.77823390  1
  H  H27  1  0.17720569  0.82727449  0.93803872  1
  H  H28  1  0.17893790  0.67310481  0.93700361  1
  H  H29  1  0.88493985  0.82232747  0.99681793  1
  H  H30  1  0.88423352  0.67790429  0.99816964  1
  H  H31  1  0.98767201  0.75204397  0.15172970  1
  Sr  Sr32  1  0.50000284  0.00000427  0.00000725  1
  Sr  Sr33  1  0.99999579  0.50000172  0.49999999  1
  Hg  Hg34  1  0.00000100  0.00000285  0.50000806  1
  Hg  Hg35  1  0.49999822  0.50000594  0.99999950  1
  Br  Br36  1  0.47071916  0.25433328  0.93900751  1
  Br  Br37  1  0.17102460  0.01466268  0.18457197  1
  Br  Br38  1  0.69304850  0.01022176  0.33236307  1
  Br  Br39  1  0.97011555  0.24568384  0.56152360  1
  Br  Br40  1  0.30695333  0.98978341  0.66765387  1
  Br  Br41  1  0.82898102  0.98533796  0.81544521  1
  Br  Br42  1  0.52928525  0.74567418  0.06100555  1
  Br  Br43  1  0.67094420  0.48524926  0.31543199  1
  Br  Br44  1  0.19308493  0.48992216  0.16765713  1
  Br  Br45  1  0.02988225  0.75432043  0.43849233  1
  Br  Br46  1  0.32904826  0.51475409  0.68457167  1
  Br  Br47  1  0.80691270  0.51008221  0.83234760  1
