# generated using pymatgen
data_SrH12PtC2(Br3N)2
_symmetry_space_group_name_H-M   'P 1'
_cell_length_a   7.64445658
_cell_length_b   12.83353667
_cell_length_c   7.47206091
_cell_angle_alpha   87.12024398
_cell_angle_beta   89.99367404
_cell_angle_gamma   90.02529251
_symmetry_Int_Tables_number   1
_chemical_formula_structural   SrH12PtC2(Br3N)2
_chemical_formula_sum   'Sr2 H24 Pt2 C4 Br12 N4'
_cell_volume   732.12383341
_cell_formula_units_Z   2
loop_
 _symmetry_equiv_pos_site_id
 _symmetry_equiv_pos_as_xyz
  1  'x, y, z'
loop_
 _atom_site_type_symbol
 _atom_site_label
 _atom_site_symmetry_multiplicity
 _atom_site_fract_x
 _atom_site_fract_y
 _atom_site_fract_z
 _atom_site_occupancy
  C  C0  1  0.39340185  0.25202802  0.40818371  1
  C  C1  1  0.89435986  0.24812839  0.09238508  1
  C  C2  1  0.60659475  0.74797616  0.59182685  1
  C  C3  1  0.10564485  0.75187642  0.90762727  1
  N  N4  1  0.55669024  0.24738016  0.51402203  1
  N  N5  1  0.05727752  0.25258369  0.98589160  1
  N  N6  1  0.44330704  0.75262552  0.48598746  1
  N  N7  1  0.94272815  0.74741547  0.01412196  1
  H  H8  1  0.42668671  0.25498028  0.26555032  1
  H  H9  1  0.31379348  0.18320468  0.44405485  1
  H  H10  1  0.32243125  0.32253280  0.44007188  1
  H  H11  1  0.63034202  0.18194343  0.48701789  1
  H  H12  1  0.63473352  0.31196614  0.48565322  1
  H  H13  1  0.53098283  0.24388169  0.65275792  1
  H  H14  1  0.92815235  0.24523753  0.23488364  1
  H  H15  1  0.82296318  0.17766244  0.06094291  1
  H  H16  1  0.81490886  0.31699995  0.05671745  1
  H  H17  1  0.13516607  0.18795561  0.01404961  1
  H  H18  1  0.13124328  0.31798676  0.01254157  1
  H  H19  1  0.03104739  0.25605989  0.84725105  1
  H  H20  1  0.57331004  0.74502432  0.73445955  1
  H  H21  1  0.67756367  0.67747060  0.55993854  1
  H  H22  1  0.68620511  0.81679862  0.55595531  1
  H  H23  1  0.36965737  0.81806347  0.51299137  1
  H  H24  1  0.36526061  0.68804083  0.51435614  1
  H  H25  1  0.46901511  0.75612350  0.34725193  1
  H  H26  1  0.07185180  0.75476942  0.76512914  1
  H  H27  1  0.17703765  0.82234312  0.93907345  1
  H  H28  1  0.18510015  0.68300584  0.94329052  1
  H  H29  1  0.86483380  0.81204152  0.98596681  1
  H  H30  1  0.86876703  0.68201075  0.98746984  1
  H  H31  1  0.96895838  0.74393859  0.15276215  1
  Sr  Sr32  1  0.50000178  0.00000154  0.00000590  1
  Sr  Sr33  1  1.00000054  0.50000088  0.50000911  1
  Pt  Pt34  1  0.00000052  0.00000155  0.50000597  1
  Pt  Pt35  1  0.49999974  0.50000144  0.00000843  1
  Br  Br36  1  0.46973415  0.22403683  0.93267238  1
  Br  Br37  1  0.13994054  0.00623202  0.20112806  1
  Br  Br38  1  0.70777847  0.01834487  0.36069127  1
  Br  Br39  1  0.96883243  0.27601938  0.56778724  1
  Br  Br40  1  0.29222256  0.98165987  0.63932110  1
  Br  Br41  1  0.86006114  0.99376934  0.79888394  1
  Br  Br42  1  0.53027176  0.77596633  0.06733948  1
  Br  Br43  1  0.63994166  0.49374340  0.29885407  1
  Br  Br44  1  0.20774351  0.48165596  0.13934275  1
  Br  Br45  1  0.03116489  0.72398237  0.43222872  1
  Br  Br46  1  0.36005863  0.50626013  0.70116242  1
  Br  Br47  1  0.79225550  0.51834676  0.86067276  1
