# generated using pymatgen
data_SrH12OsC2(Br3N)2
_symmetry_space_group_name_H-M   'P 1'
_cell_length_a   7.81290911
_cell_length_b   11.08595510
_cell_length_c   7.65858653
_cell_angle_alpha   92.23696499
_cell_angle_beta   90.00355287
_cell_angle_gamma   89.99309392
_symmetry_Int_Tables_number   1
_chemical_formula_structural   SrH12OsC2(Br3N)2
_chemical_formula_sum   'Sr2 H24 Os2 C4 Br12 N4'
_cell_volume   662.83193312
_cell_formula_units_Z   2
loop_
 _symmetry_equiv_pos_site_id
 _symmetry_equiv_pos_as_xyz
  1  'x, y, z'
loop_
 _atom_site_type_symbol
 _atom_site_label
 _atom_site_symmetry_multiplicity
 _atom_site_fract_x
 _atom_site_fract_y
 _atom_site_fract_z
 _atom_site_occupancy
  C  C0  1  0.39358473  0.24967300  0.41086331  1
  C  C1  1  0.89464897  0.25054587  0.09003036  1
  C  C2  1  0.60641295  0.75033156  0.58914779  1
  C  C3  1  0.10535574  0.74945683  0.90998229  1
  N  N4  1  0.54582708  0.25095529  0.52484668  1
  N  N5  1  0.04628455  0.24906655  0.97522903  1
  N  N6  1  0.45416974  0.74905015  0.47516557  1
  N  N7  1  0.95372177  0.75093170  0.02478572  1
  H  H8  1  0.43529888  0.24881954  0.27460360  1
  H  H9  1  0.31620869  0.17052006  0.43646210  1
  H  H10  1  0.32106723  0.33212424  0.43919653  1
  H  H11  1  0.62003773  0.17445640  0.49900380  1
  H  H12  1  0.61977717  0.32591011  0.49972528  1
  H  H13  1  0.51356358  0.25490550  0.65750157  1
  H  H14  1  0.93713608  0.25146498  0.22605630  1
  H  H15  1  0.82186913  0.16812291  0.06232590  1
  H  H16  1  0.81722815  0.32974025  0.06476633  1
  H  H17  1  0.12024089  0.17405807  0.00002174  1
  H  H18  1  0.12071966  0.32552026  0.00065411  1
  H  H19  1  0.01334087  0.24510286  0.84275921  1
  H  H20  1  0.56469949  0.75118639  0.72540781  1
  H  H21  1  0.67892860  0.66787956  0.56081544  1
  H  H22  1  0.68379030  0.82948375  0.56354769  1
  H  H23  1  0.37995977  0.82554918  0.50100881  1
  H  H24  1  0.38021937  0.67409540  0.50028777  1
  H  H25  1  0.48643256  0.74509964  0.34251062  1
  H  H26  1  0.06286686  0.74854006  0.77395714  1
  H  H27  1  0.17813440  0.83187992  0.93768987  1
  H  H28  1  0.18277858  0.67026262  0.93524146  1
  H  H29  1  0.87976143  0.82593875  0.99999607  1
  H  H30  1  0.87928969  0.67447668  0.99935967  1
  H  H31  1  0.98666698  0.75489490  0.15725519  1
  Sr  Sr32  1  0.50000222  0.00000299  0.00000701  1
  Sr  Sr33  1  0.99999815  0.50000192  0.50000274  1
  Os  Os34  1  0.00000084  0.00000210  0.50000768  1
  Os  Os35  1  0.49999919  0.50000294  0.00000342  1
  Br  Br36  1  0.47463806  0.27106381  0.94713585  1
  Br  Br37  1  0.16385735  0.01083592  0.20826976  1
  Br  Br38  1  0.71574087  0.00157709  0.33098311  1
  Br  Br39  1  0.97395070  0.22889421  0.55337067  1
  Br  Br40  1  0.28426084  0.99842826  0.66903292  1
  Br  Br41  1  0.83614617  0.98916565  0.79174600  1
  Br  Br42  1  0.52536388  0.72894201  0.05287476  1
  Br  Br43  1  0.66373020  0.48915400  0.29176139  1
  Br  Br44  1  0.21570097  0.49853583  0.16895056  1
  Br  Br45  1  0.02604855  0.77110975  0.44664509  1
  Br  Br46  1  0.33626736  0.51085039  0.70824477  1
  Br  Br47  1  0.78429679  0.50146841  0.83105607  1
