# generated using pymatgen
data_BaSrH12C2(Br3N)2
_symmetry_space_group_name_H-M   'P 1'
_cell_length_a   8.52099054
_cell_length_b   12.10069851
_cell_length_c   8.04495188
_cell_angle_alpha   89.43968222
_cell_angle_beta   90.00042341
_cell_angle_gamma   89.99949933
_symmetry_Int_Tables_number   1
_chemical_formula_structural   BaSrH12C2(Br3N)2
_chemical_formula_sum   'Ba2 Sr2 H24 C4 Br12 N4'
_cell_volume   829.47481960
_cell_formula_units_Z   2
loop_
 _symmetry_equiv_pos_site_id
 _symmetry_equiv_pos_as_xyz
  1  'x, y, z'
loop_
 _atom_site_type_symbol
 _atom_site_label
 _atom_site_symmetry_multiplicity
 _atom_site_fract_x
 _atom_site_fract_y
 _atom_site_fract_z
 _atom_site_occupancy
  C  C0  1  0.39335188  0.25031394  0.41809858  1
  C  C1  1  0.89346630  0.24969578  0.08190213  1
  C  C2  1  0.60663967  0.74969438  0.58189334  1
  C  C3  1  0.10653271  0.75030174  0.91810433  1
  N  N4  1  0.53934328  0.24979255  0.51845864  1
  N  N5  1  0.03945225  0.25020684  0.98153338  1
  N  N6  1  0.46065025  0.75020998  0.48152901  1
  N  N7  1  0.96055526  0.74978805  0.01848831  1
  H  H8  1  0.42471176  0.25015309  0.28600706  1
  H  H9  1  0.32640454  0.17562531  0.44813038  1
  H  H10  1  0.32573583  0.32452438  0.44705506  1
  H  H11  1  0.60544252  0.18000967  0.48948876  1
  H  H12  1  0.60620970  0.31985694  0.49038522  1
  H  H13  1  0.51552049  0.24857764  0.64599496  1
  H  H14  1  0.92484091  0.24986454  0.21399123  1
  H  H15  1  0.82584917  0.17548532  0.05296059  1
  H  H16  1  0.82652119  0.32438549  0.05186276  1
  H  H17  1  0.10631355  0.18014193  0.00961130  1
  H  H18  1  0.10555587  0.31998714  0.01049156  1
  H  H19  1  0.01561879  0.25141828  0.85399679  1
  H  H20  1  0.57527469  0.74985468  0.71398332  1
  H  H21  1  0.67425800  0.67548450  0.55294040  1
  H  H22  1  0.67358463  0.82438355  0.55185929  1
  H  H23  1  0.39454819  0.81999281  0.51049012  1
  H  H24  1  0.39378582  0.68014715  0.50961077  1
  H  H25  1  0.48447525  0.75142081  0.35399262  1
  H  H26  1  0.07514385  0.75014537  0.78601789  1
  H  H27  1  0.17415819  0.82450603  0.94705008  1
  H  H28  1  0.17347541  0.67560612  0.94811936  1
  H  H29  1  0.89369015  0.81984975  0.99041542  1
  H  H30  1  0.89445309  0.68000470  0.98953751  1
  H  H31  1  0.98439930  0.74857735  0.14602286  1
  Sr  Sr32  1  0.50000948  0.00000278  0.99998466  1
  Sr  Sr33  1  0.00001228  0.50001206  0.50005115  1
  Ba  Ba34  1  0.00000064  0.00001118  0.49999315  1
  Ba  Ba35  1  0.50000104  0.49999620  0.00005616  1
  Br  Br36  1  0.46467720  0.24387578  0.92587271  1
  Br  Br37  1  0.18201434  0.02146808  0.15796847  1
  Br  Br38  1  0.66665772  0.02506899  0.32809466  1
  Br  Br39  1  0.96467800  0.25613573  0.57414172  1
  Br  Br40  1  0.33334290  0.97493947  0.67188920  1
  Br  Br41  1  0.81801595  0.97852936  0.84203241  1
  Br  Br42  1  0.53532112  0.75613149  0.07411563  1
  Br  Br43  1  0.68199871  0.47853194  0.34208945  1
  Br  Br44  1  0.16665653  0.47495326  0.17193779  1
  Br  Br45  1  0.03532290  0.74388006  0.42588595  1
  Br  Br46  1  0.31801763  0.52149943  0.65801278  1
  Br  Br47  1  0.83333478  0.52503661  0.82814763  1
