# generated using pymatgen
data_SrSnH12C2(Br3N)2
_symmetry_space_group_name_H-M   'P 1'
_cell_length_a   8.24948654
_cell_length_b   11.77913991
_cell_length_c   7.94832235
_cell_angle_alpha   90.22300389
_cell_angle_beta   90.00195773
_cell_angle_gamma   90.00100308
_symmetry_Int_Tables_number   1
_chemical_formula_structural   SrSnH12C2(Br3N)2
_chemical_formula_sum   'Sr2 Sn2 H24 C4 Br12 N4'
_cell_volume   772.34738555
_cell_formula_units_Z   2
loop_
 _symmetry_equiv_pos_site_id
 _symmetry_equiv_pos_as_xyz
  1  'x, y, z'
loop_
 _atom_site_type_symbol
 _atom_site_label
 _atom_site_symmetry_multiplicity
 _atom_site_fract_x
 _atom_site_fract_y
 _atom_site_fract_z
 _atom_site_occupancy
  C  C0  1  0.39656572  0.24986063  0.41443851  1
  C  C1  1  0.89700027  0.25015511  0.08590267  1
  C  C2  1  0.60342599  0.75014485  0.58556784  1
  C  C3  1  0.10300460  0.74984774  0.91411278  1
  N  N4  1  0.54341081  0.25004610  0.52202712  1
  N  N5  1  0.04363281  0.24995919  0.97801553  1
  N  N6  1  0.45658039  0.74995882  0.47797951  1
  N  N7  1  0.95637610  0.75004079  0.02200531  1
  H  H8  1  0.43440500  0.25004671  0.28247607  1
  H  H9  1  0.32576465  0.17369384  0.44137616  1
  H  H10  1  0.32638299  0.32638899  0.44179841  1
  H  H11  1  0.61318517  0.17842584  0.49589483  1
  H  H12  1  0.61291793  0.32159205  0.49572733  1
  H  H13  1  0.51473999  0.25050920  0.65000810  1
  H  H14  1  0.93511750  0.24997325  0.21778270  1
  H  H15  1  0.82675244  0.17362325  0.05871740  1
  H  H16  1  0.82615272  0.32632623  0.05912007  1
  H  H17  1  0.11317564  0.17841318  0.00418840  1
  H  H18  1  0.11345847  0.32157772  0.00401357  1
  H  H19  1  0.01473247  0.24949451  0.85008895  1
  H  H20  1  0.56558657  0.74995976  0.71752976  1
  H  H21  1  0.67360977  0.67361807  0.55820873  1
  H  H22  1  0.67422473  0.82631304  0.55862842  1
  H  H23  1  0.38680469  0.82157711  0.50411059  1
  H  H24  1  0.38707399  0.67841086  0.50428039  1
  H  H25  1  0.48525094  0.74949382  0.34999810  1
  H  H26  1  0.06488076  0.75003198  0.78223444  1
  H  H27  1  0.17325150  0.82638020  0.94129786  1
  H  H28  1  0.17385417  0.67367739  0.94088831  1
  H  H29  1  0.88683070  0.82158526  0.99583877  1
  H  H30  1  0.88655102  0.67842107  0.99600768  1
  H  H31  1  0.98528090  0.75050303  0.14993218  1
  Sr  Sr32  1  0.50000943  0.00000074  0.00000558  1
  Sr  Sr33  1  0.99999880  0.50000052  0.50000583  1
  Sn  Sn34  1  0.00000642  0.00000184  0.50000675  1
  Sn  Sn35  1  0.49999977  0.50000101  0.00000458  1
  Br  Br36  1  0.47175358  0.25218018  0.93535647  1
  Br  Br37  1  0.17670461  0.01736996  0.17609833  1
  Br  Br38  1  0.68265618  0.01651922  0.32888499  1
  Br  Br39  1  0.97160274  0.24782091  0.56480045  1
  Br  Br40  1  0.31735511  0.98348834  0.67112956  1
  Br  Br41  1  0.82331340  0.98262888  0.82391358  1
  Br  Br42  1  0.52825298  0.74782165  0.06465518  1
  Br  Br43  1  0.67667799  0.48256979  0.32391041  1
  Br  Br44  1  0.18266854  0.48356067  0.17112671  1
  Br  Br45  1  0.02839737  0.75218215  0.43522108  1
  Br  Br46  1  0.32332050  0.51743147  0.67610007  1
  Br  Br47  1  0.81732491  0.51645133  0.82888053  1
