# generated using pymatgen
data_SrCdH12C2(Br3N)2
_symmetry_space_group_name_H-M   'P 1'
_cell_length_a   8.03925741
_cell_length_b   11.51246648
_cell_length_c   7.82824273
_cell_angle_alpha   91.02506937
_cell_angle_beta   90.00629915
_cell_angle_gamma   90.00057712
_symmetry_Int_Tables_number   1
_chemical_formula_structural   SrCdH12C2(Br3N)2
_chemical_formula_sum   'Sr2 Cd2 H24 C4 Br12 N4'
_cell_volume   724.40107299
_cell_formula_units_Z   2
loop_
 _symmetry_equiv_pos_site_id
 _symmetry_equiv_pos_as_xyz
  1  'x, y, z'
loop_
 _atom_site_type_symbol
 _atom_site_label
 _atom_site_symmetry_multiplicity
 _atom_site_fract_x
 _atom_site_fract_y
 _atom_site_fract_z
 _atom_site_occupancy
  C  C0  1  0.39442697  0.24984181  0.41249668  1
  C  C1  1  0.89545779  0.25034687  0.08847402  1
  C  C2  1  0.60556992  0.75016272  0.58751529  1
  C  C3  1  0.10454783  0.74965525  0.91153907  1
  N  N4  1  0.54368197  0.25049685  0.52316147  1
  N  N5  1  0.04409284  0.24952897  0.97697176  1
  N  N6  1  0.45631495  0.74950829  0.47685056  1
  N  N7  1  0.95591399  0.75046933  0.02304302  1
  H  H8  1  0.43430327  0.24985781  0.27882889  1
  H  H9  1  0.32076557  0.17251259  0.43845519  1
  H  H10  1  0.32280219  0.32850659  0.44008421  1
  H  H11  1  0.61563935  0.17705353  0.49777434  1
  H  H12  1  0.61523121  0.32324350  0.49723844  1
  H  H13  1  0.51322307  0.25251558  0.65295098  1
  H  H14  1  0.93610546  0.25037598  0.22189590  1
  H  H15  1  0.82354823  0.17171164  0.06144844  1
  H  H16  1  0.82176069  0.32772374  0.06286329  1
  H  H17  1  0.11565712  0.17673193  0.00258443  1
  H  H18  1  0.11628132  0.32292661  0.00197323  1
  H  H19  1  0.01298184  0.24750565  0.84735859  1
  H  H20  1  0.56569445  0.75014856  0.72118323  1
  H  H21  1  0.67719302  0.67149672  0.55992909  1
  H  H22  1  0.67923348  0.82749083  0.56155497  1
  H  H23  1  0.38435806  0.82295196  0.50223860  1
  H  H24  1  0.38476502  0.67676195  0.50277423  1
  H  H25  1  0.48677331  0.74748961  0.34706173  1
  H  H26  1  0.06389860  0.74962828  0.77811768  1
  H  H27  1  0.17645676  0.82829031  0.93856754  1
  H  H28  1  0.17824614  0.67227828  0.93714524  1
  H  H29  1  0.88434670  0.82326525  0.99743308  1
  H  H30  1  0.88372797  0.67707074  0.99804067  1
  H  H31  1  0.98702630  0.75249219  0.15265597  1
  Sr  Sr32  1  0.50000253  0.00000423  0.00000789  1
  Sr  Sr33  1  0.99999603  0.50000151  0.50000025  1
  Cd  Cd34  1  0.00000109  0.00000214  0.50000925  1
  Cd  Cd35  1  0.49999822  0.50000503  0.99999937  1
  Br  Br36  1  0.47291319  0.25831466  0.94116884  1
  Br  Br37  1  0.17147869  0.01495909  0.18811697  1
  Br  Br38  1  0.69566394  0.00947602  0.33073052  1
  Br  Br39  1  0.97234055  0.24169093  0.55932181  1
  Br  Br40  1  0.30433892  0.99052943  0.66928631  1
  Br  Br41  1  0.82852656  0.98504147  0.81190107  1
  Br  Br42  1  0.52709019  0.74169266  0.05884310  1
  Br  Br43  1  0.67139799  0.48496300  0.31188676  1
  Br  Br44  1  0.19569433  0.49064922  0.16927518  1
  Br  Br45  1  0.02765788  0.75831297  0.44069415  1
  Br  Br46  1  0.32859531  0.51504080  0.68811633  1
  Br  Br47  1  0.80430293  0.50935519  0.83072896  1
