# generated using pymatgen
data_SrH12PdC2(Br3N)2
_symmetry_space_group_name_H-M   'P 1'
_cell_length_a   7.70174618
_cell_length_b   12.56570534
_cell_length_c   7.49007212
_cell_angle_alpha   88.37757704
_cell_angle_beta   89.99854342
_cell_angle_gamma   90.01158903
_symmetry_Int_Tables_number   1
_chemical_formula_structural   SrH12PdC2(Br3N)2
_chemical_formula_sum   'Sr2 H24 Pd2 C4 Br12 N4'
_cell_volume   724.58264036
_cell_formula_units_Z   2
loop_
 _symmetry_equiv_pos_site_id
 _symmetry_equiv_pos_as_xyz
  1  'x, y, z'
loop_
 _atom_site_type_symbol
 _atom_site_label
 _atom_site_symmetry_multiplicity
 _atom_site_fract_x
 _atom_site_fract_y
 _atom_site_fract_z
 _atom_site_occupancy
  C  C0  1  0.39675021  0.25123852  0.41049496  1
  C  C1  1  0.89747178  0.24888764  0.08989022  1
  C  C2  1  0.60324732  0.74876610  0.58951627  1
  C  C3  1  0.10253212  0.75111663  0.91012156  1
  N  N4  1  0.55824368  0.24865381  0.51688729  1
  N  N5  1  0.05862575  0.25131888  0.98294769  1
  N  N6  1  0.44175376  0.75135229  0.48312381  1
  N  N7  1  0.94137873  0.74868041  0.01706488  1
  H  H8  1  0.43061492  0.25282342  0.26855251  1
  H  H9  1  0.31890813  0.18086052  0.44523949  1
  H  H10  1  0.32501859  0.32325221  0.44196549  1
  H  H11  1  0.63250621  0.18199403  0.48963162  1
  H  H12  1  0.63422037  0.31484753  0.48861942  1
  H  H13  1  0.53220818  0.24652252  0.65498084  1
  H  H14  1  0.93178904  0.24737518  0.23170797  1
  H  H15  1  0.82543475  0.17691379  0.05881209  1
  H  H16  1  0.81970447  0.31931443  0.05529037  1
  H  H17  1  0.13451607  0.18506497  0.01105198  1
  H  H18  1  0.13313335  0.31792012  0.00991781  1
  H  H19  1  0.03216407  0.25342103  0.84494270  1
  H  H20  1  0.56938231  0.74718110  0.73145881  1
  H  H21  1  0.67497607  0.67675089  0.55804582  1
  H  H22  1  0.68109218  0.81914251  0.55477222  1
  H  H23  1  0.36749431  0.81801425  0.51037911  1
  H  H24  1  0.36577401  0.68516092  0.51139051  1
  H  H25  1  0.46779028  0.75348381  0.34503044  1
  H  H26  1  0.06821418  0.75263072  0.76830390  1
  H  H27  1  0.17456562  0.82309128  0.94120258  1
  H  H28  1  0.18030313  0.68069073  0.94471766  1
  H  H29  1  0.86548353  0.81493256  0.98896306  1
  H  H30  1  0.86687536  0.68207764  0.99009320  1
  H  H31  1  0.96784077  0.74657782  0.15506974  1
  Sr  Sr32  1  0.50000158  0.00000131  0.00000660  1
  Sr  Sr33  1  0.00000115  0.50000086  0.50000775  1
  Pd  Pd34  1  0.00000018  0.00000142  0.50000659  1
  Pd  Pd35  1  0.50000028  0.50000123  0.00000715  1
  Br  Br36  1  0.47293272  0.22957185  0.93523570  1
  Br  Br37  1  0.14567500  0.00805764  0.20251571  1
  Br  Br38  1  0.71013329  0.01584151  0.35486728  1
  Br  Br39  1  0.97230244  0.27046241  0.56500548  1
  Br  Br40  1  0.28986737  0.98416279  0.64514674  1
  Br  Br41  1  0.85432686  0.99194367  0.79749785  1
  Br  Br42  1  0.52707171  0.77043075  0.06477654  1
  Br  Br43  1  0.64569000  0.49192575  0.29748169  1
  Br  Br44  1  0.21013061  0.48414694  0.14514291  1
  Br  Br45  1  0.02769578  0.72953934  0.43500870  1
  Br  Br46  1  0.35431164  0.50807707  0.70253301  1
  Br  Br47  1  0.78986989  0.51585549  0.85487089  1
