# generated using pymatgen
data_CdBH12C2(I3N)2
_symmetry_space_group_name_H-M   'P 1'
_cell_length_a   8.48937609
_cell_length_b   11.85555854
_cell_length_c   8.48715282
_cell_angle_alpha   91.59809260
_cell_angle_beta   91.34215675
_cell_angle_gamma   88.79938704
_symmetry_Int_Tables_number   1
_chemical_formula_structural   CdBH12C2(I3N)2
_chemical_formula_sum   'Cd2 B2 H24 C4 I12 N4'
_cell_volume   853.45784253
_cell_formula_units_Z   2
loop_
 _symmetry_equiv_pos_site_id
 _symmetry_equiv_pos_as_xyz
  1  'x, y, z'
loop_
 _atom_site_type_symbol
 _atom_site_label
 _atom_site_symmetry_multiplicity
 _atom_site_fract_x
 _atom_site_fract_y
 _atom_site_fract_z
 _atom_site_occupancy
  C  C0  1  0.43287760  0.24200462  0.44247202  1
  C  C1  1  0.93722541  0.24168934  0.07360734  1
  C  C2  1  0.57316376  0.75438443  0.58712980  1
  C  C3  1  0.06840362  0.75736148  0.92733019  1
  N  N4  1  0.56183312  0.22263271  0.56107197  1
  N  N5  1  0.06654408  0.22451902  0.96012888  1
  N  N6  1  0.43081472  0.75431838  0.48225791  1
  N  N7  1  0.92545590  0.77186393  0.02410246  1
  H  H8  1  0.48402288  0.24458231  0.32536098  1
  H  H9  1  0.35210878  0.17134323  0.44566152  1
  H  H10  1  0.37112721  0.32145840  0.47272198  1
  H  H11  1  0.61522811  0.14410594  0.54014151  1
  H  H12  1  0.65246446  0.27990589  0.55552129  1
  H  H13  1  0.52207975  0.22568220  0.67632705  1
  H  H14  1  0.98822603  0.25318720  0.19254318  1
  H  H15  1  0.86454445  0.16657511  0.06862865  1
  H  H16  1  0.86679555  0.31612906  0.04068601  1
  H  H17  1  0.12916706  0.14997082  0.98493541  1
  H  H18  1  0.14677182  0.28902199  0.96836531  1
  H  H19  1  0.02545129  0.22060508  0.84288981  1
  H  H20  1  0.53576081  0.76768763  0.70914419  1
  H  H21  1  0.63500715  0.67273524  0.57485494  1
  H  H22  1  0.64904509  0.82288052  0.55398705  1
  H  H23  1  0.36347976  0.82796662  0.50333993  1
  H  H24  1  0.36196884  0.68576383  0.50945527  1
  H  H25  1  0.45757929  0.74800738  0.36264366  1
  H  H26  1  0.03129990  0.75548651  0.80308847  1
  H  H27  1  0.14571468  0.82838816  0.95285151  1
  H  H28  1  0.12828068  0.67771311  0.95598259  1
  H  H29  1  0.86013796  0.84334981  0.99160050  1
  H  H30  1  0.85262170  0.70253737  0.00678319  1
  H  H31  1  0.95361711  0.78122593  0.14296047  1
  B  B32  1  0.56521124  0.04176158  0.01752058  1
  B  B33  1  0.96346363  0.56204251  0.32871597  1
  Cd  Cd34  1  0.02283382  0.04615966  0.44000773  1
  Cd  Cd35  1  0.53498157  0.51100877  0.90889017  1
  I  I36  1  0.49037552  0.27243852  0.98860316  1
  I  I37  1  0.21423368  0.99834387  0.18473207  1
  I  I38  1  0.71000640  0.00082905  0.29626534  1
  I  I39  1  0.97551134  0.26570383  0.55481871  1
  I  I40  1  0.24234337  0.97904080  0.68409238  1
  I  I41  1  0.75308975  0.00426361  0.82060314  1
  I  I42  1  0.49861439  0.72430179  0.06628792  1
  I  I43  1  0.73691466  0.49130088  0.31798253  1
  I  I44  1  0.16126772  0.48795430  0.21263865  1
  I  I45  1  0.99551935  0.72188496  0.44801683  1
  I  I46  1  0.30138778  0.51310692  0.67363707  1
  I  I47  1  0.84545094  0.51485397  0.81890929  1
