# generated using pymatgen
data_SrH12RuC2(Br3N)2
_symmetry_space_group_name_H-M   'P 1'
_cell_length_a   7.90325070
_cell_length_b   11.08828172
_cell_length_c   7.65383689
_cell_angle_alpha   92.20036922
_cell_angle_beta   89.98965424
_cell_angle_gamma   89.99788262
_symmetry_Int_Tables_number   1
_chemical_formula_structural   SrH12RuC2(Br3N)2
_chemical_formula_sum   'Sr2 H24 Ru2 C4 Br12 N4'
_cell_volume   670.23772430
_cell_formula_units_Z   2
loop_
 _symmetry_equiv_pos_site_id
 _symmetry_equiv_pos_as_xyz
  1  'x, y, z'
loop_
 _atom_site_type_symbol
 _atom_site_label
 _atom_site_symmetry_multiplicity
 _atom_site_fract_x
 _atom_site_fract_y
 _atom_site_fract_z
 _atom_site_occupancy
  C  C0  1  0.41038578  0.25100423  0.41522978  1
  C  C1  1  0.91083467  0.24906365  0.08462484  1
  C  C2  1  0.58961365  0.74899978  0.58478046  1
  C  C3  1  0.08916535  0.75094280  0.91538629  1
  N  N4  1  0.56282710  0.25276717  0.52670456  1
  N  N5  1  0.06307575  0.24717345  0.97279406  1
  N  N6  1  0.43717217  0.74723838  0.47330586  1
  N  N7  1  0.93692544  0.75282813  0.02721838  1
  H  H8  1  0.45019451  0.24693653  0.27831965  1
  H  H9  1  0.33289781  0.17319376  0.44524198  1
  H  H10  1  0.34097394  0.33483650  0.44102225  1
  H  H11  1  0.63551048  0.17596726  0.50099144  1
  H  H12  1  0.63585172  0.32710138  0.49859343  1
  H  H13  1  0.53313192  0.25793908  0.65995728  1
  H  H14  1  0.95091245  0.25324833  0.22143351  1
  H  H15  1  0.84132892  0.16524622  0.05915729  1
  H  H16  1  0.83333894  0.32688495  0.05465257  1
  H  H17  1  0.13605836  0.17278026  0.00071247  1
  H  H18  1  0.13588668  0.32390887  0.99833060  1
  H  H19  1  0.03312903  0.24201354  0.83960211  1
  H  H20  1  0.54980525  0.75306791  0.72169073  1
  H  H21  1  0.65902451  0.66516720  0.55898739  1
  H  H22  1  0.66710226  0.82680981  0.55476776  1
  H  H23  1  0.36449135  0.82403975  0.49901767  1
  H  H24  1  0.36414470  0.67290582  0.50141650  1
  H  H25  1  0.46686792  0.74206517  0.34005297  1
  H  H26  1  0.04908616  0.74675913  0.77857796  1
  H  H27  1  0.15866685  0.83476194  0.94085484  1
  H  H28  1  0.16666558  0.67312299  0.94535574  1
  H  H29  1  0.86393868  0.82721972  0.99930215  1
  H  H30  1  0.86411813  0.67609101  0.00168050  1
  H  H31  1  0.96687258  0.75798736  0.16041020  1
  Sr  Sr32  1  0.49999873  0.99999911  0.00000514  1
  Sr  Sr33  1  0.00000567  0.50000021  0.50001285  1
  Ru  Ru34  1  0.99999893  0.00000030  0.50000553  1
  Ru  Ru35  1  0.50000404  0.49999958  0.00001085  1
  Br  Br36  1  0.48554557  0.27006660  0.94857486  1
  Br  Br37  1  0.17247673  0.01084640  0.21303649  1
  Br  Br38  1  0.72125229  0.00315583  0.32459143  1
  Br  Br39  1  0.98510303  0.22993239  0.55122687  1
  Br  Br40  1  0.27874632  0.99684707  0.67541781  1
  Br  Br41  1  0.82752123  0.98915520  0.78697488  1
  Br  Br42  1  0.51445990  0.72993237  0.05144048  1
  Br  Br43  1  0.67249587  0.48913560  0.28691593  1
  Br  Br44  1  0.22117017  0.49667069  0.17533098  1
  Br  Br45  1  0.01489492  0.77006788  0.44878491  1
  Br  Br46  1  0.32751504  0.51086553  0.71310566  1
  Br  Br47  1  0.77883669  0.50333142  0.82468871  1
