# generated using pymatgen
data_YTlH12C2(Br3N)2
_symmetry_space_group_name_H-M   'P 1'
_cell_length_a   8.35533895
_cell_length_b   11.87188271
_cell_length_c   7.91284297
_cell_angle_alpha   87.00083784
_cell_angle_beta   89.99578859
_cell_angle_gamma   90.00072363
_symmetry_Int_Tables_number   1
_chemical_formula_structural   YTlH12C2(Br3N)2
_chemical_formula_sum   'Y2 Tl2 H24 C4 Br12 N4'
_cell_volume   783.82832786
_cell_formula_units_Z   2
loop_
 _symmetry_equiv_pos_site_id
 _symmetry_equiv_pos_as_xyz
  1  'x, y, z'
loop_
 _atom_site_type_symbol
 _atom_site_label
 _atom_site_symmetry_multiplicity
 _atom_site_fract_x
 _atom_site_fract_y
 _atom_site_fract_z
 _atom_site_occupancy
  C  C0  1  0.41691458  0.25053780  0.42787095  1
  C  C1  1  0.91672109  0.24926267  0.07223696  1
  C  C2  1  0.58346125  0.74946163  0.57294983  1
  C  C3  1  0.08291919  0.75075958  0.92737091  1
  N  N4  1  0.56975369  0.24756235  0.52403068  1
  N  N5  1  0.06934986  0.25254207  0.97569428  1
  N  N6  1  0.43087592  0.75247641  0.47637337  1
  N  N7  1  0.93020997  0.74742536  0.02377308  1
  H  H8  1  0.44469881  0.25507346  0.29248124  1
  H  H9  1  0.35048504  0.17308533  0.46068625  1
  H  H10  1  0.34872269  0.32466274  0.46163811  1
  H  H11  1  0.63633006  0.17793615  0.49214779  1
  H  H12  1  0.63677443  0.31992607  0.49385321  1
  H  H13  1  0.54984587  0.24235885  0.65458432  1
  H  H14  1  0.94480785  0.24486679  0.20755492  1
  H  H15  1  0.84878219  0.17497930  0.03874456  1
  H  H16  1  0.84987643  0.32656663  0.03951436  1
  H  H17  1  0.13668461  0.18031776  0.00574382  1
  H  H18  1  0.13573558  0.32230637  0.00742133  1
  H  H19  1  0.04922052  0.25769437  0.84518427  1
  H  H20  1  0.55535024  0.74494336  0.70825676  1
  H  H21  1  0.65174709  0.67534408  0.53936993  1
  H  H22  1  0.64998865  0.82692815  0.54033306  1
  H  H23  1  0.36422687  0.82211829  0.50811874  1
  H  H24  1  0.36375672  0.68011963  0.50638136  1
  H  H25  1  0.45101947  0.75768233  0.34587703  1
  H  H26  1  0.05497388  0.75513497  0.79203203  1
  H  H27  1  0.15076985  0.82507982  0.96093756  1
  H  H28  1  0.14980200  0.67348847  0.96018810  1
  H  H29  1  0.86283190  0.81963820  0.99368426  1
  H  H30  1  0.86391954  0.67763520  0.99197436  1
  H  H31  1  0.95026504  0.74227600  0.15428390  1
  Y  Y32  1  0.49980725  0.00001329  0.00010855  1
  Y  Y33  1  0.00008927  0.50000235  0.49977726  1
  Tl  Tl34  1  0.99993346  0.99992171  0.49999300  1
  Tl  Tl35  1  0.50004048  0.50001118  0.99993155  1
  Br  Br36  1  0.48641069  0.23416263  0.93725957  1
  Br  Br37  1  0.20347131  0.01030165  0.15882147  1
  Br  Br38  1  0.65853793  0.02117870  0.30687615  1
  Br  Br39  1  0.98660071  0.26582989  0.56239726  1
  Br  Br40  1  0.34117462  0.97873276  0.69328241  1
  Br  Br41  1  0.79603806  0.98982339  0.84108007  1
  Br  Br42  1  0.51319715  0.76586390  0.06297319  1
  Br  Br43  1  0.70364838  0.48999632  0.34116858  1
  Br  Br44  1  0.15866698  0.47872825  0.19293905  1
  Br  Br45  1  0.01379526  0.73412457  0.43691717  1
  Br  Br46  1  0.29632243  0.51012223  0.65878077  1
  Br  Br47  1  0.84146887  0.52107525  0.80669925  1
