# generated using pymatgen
data_YH12AuC2(Br3N)2
_symmetry_space_group_name_H-M   'P 1'
_cell_length_a   8.28620080
_cell_length_b   10.54416395
_cell_length_c   8.31141808
_cell_angle_alpha   88.47296596
_cell_angle_beta   90.00030429
_cell_angle_gamma   90.01200372
_symmetry_Int_Tables_number   1
_chemical_formula_structural   YH12AuC2(Br3N)2
_chemical_formula_sum   'Y2 H24 Au2 C4 Br12 N4'
_cell_volume   725.91949667
_cell_formula_units_Z   2
loop_
 _symmetry_equiv_pos_site_id
 _symmetry_equiv_pos_as_xyz
  1  'x, y, z'
loop_
 _atom_site_type_symbol
 _atom_site_label
 _atom_site_symmetry_multiplicity
 _atom_site_fract_x
 _atom_site_fract_y
 _atom_site_fract_z
 _atom_site_occupancy
  C  C0  1  0.43150596  0.24819831  0.41427041  1
  C  C1  1  0.93443908  0.25193338  0.08551657  1
  C  C2  1  0.56523713  0.75159691  0.58418255  1
  C  C3  1  0.06798965  0.74806871  0.91563033  1
  N  N4  1  0.55291120  0.25042079  0.54588755  1
  N  N5  1  0.05541965  0.24958957  0.95347900  1
  N  N6  1  0.44489421  0.74944756  0.45154168  1
  N  N7  1  0.94729899  0.75054086  0.04788888  1
  H  H8  1  0.49603484  0.24854654  0.29960688  1
  H  H9  1  0.35844728  0.16225054  0.42821705  1
  H  H10  1  0.35653705  0.33308927  0.42136594  1
  H  H11  1  0.62753224  0.17197201  0.54265669  1
  H  H12  1  0.62465410  0.33098696  0.53221654  1
  H  H13  1  0.49978338  0.25154368  0.65894302  1
  H  H14  1  0.99929357  0.25146653  0.19999005  1
  H  H15  1  0.85922777  0.16709800  0.07857212  1
  H  H16  1  0.86153049  0.33793741  0.07179623  1
  H  H17  1  0.12700512  0.16898231  0.96674213  1
  H  H18  1  0.13031732  0.32797450  0.95635538  1
  H  H19  1  0.00190750  0.24857537  0.84059320  1
  H  H20  1  0.49979339  0.75116218  0.69832067  1
  H  H21  1  0.64032686  0.66673459  0.57754722  1
  H  H22  1  0.63834485  0.83757708  0.57086248  1
  H  H23  1  0.37005513  0.82778432  0.45410774  1
  H  H24  1  0.37319783  0.66881603  0.46420933  1
  H  H25  1  0.49896742  0.74851387  0.33888182  1
  H  H26  1  0.00286501  0.74844376  0.80132224  1
  H  H27  1  0.14321214  0.83290562  0.92229538  1
  H  H28  1  0.14090835  0.66206803  0.92929257  1
  H  H29  1  0.87569337  0.83114245  0.03457829  1
  H  H30  1  0.87240033  0.67214889  0.04518137  1
  H  H31  1  0.00097763  0.75162387  0.16066830  1
  Y  Y32  1  0.50042461  0.99992228  0.00007399  1
  Y  Y33  1  0.99958137  0.50020149  0.50096261  1
  Au  Au34  1  0.99952836  0.00022251  0.50090737  1
  Au  Au35  1  0.49895658  0.49990218  0.00017709  1
  Br  Br36  1  0.48619547  0.26794247  0.95580036  1
  Br  Br37  1  0.21368047  0.00356597  0.16819298  1
  Br  Br38  1  0.67088145  0.00063265  0.28529438  1
  Br  Br39  1  0.98375229  0.23214397  0.54464097  1
  Br  Br40  1  0.32928604  0.00012445  0.71529981  1
  Br  Br41  1  0.78762364  0.99542150  0.83314232  1
  Br  Br42  1  0.51674219  0.73185930  0.04328908  1
  Br  Br43  1  0.71313702  0.49561759  0.33257180  1
  Br  Br44  1  0.17124738  0.50056279  0.21613779  1
  Br  Br45  1  0.01436365  0.76826033  0.45716778  1
  Br  Br46  1  0.28676433  0.50374725  0.66811721  1
  Br  Br47  1  0.82915002  0.50081167  0.78580146  1
