# generated using pymatgen
data_YInH12C2(Br3N)2
_symmetry_space_group_name_H-M   'P 1'
_cell_length_a   8.26985555
_cell_length_b   11.80031240
_cell_length_c   7.96506274
_cell_angle_alpha   86.88847232
_cell_angle_beta   89.99920996
_cell_angle_gamma   90.01295382
_symmetry_Int_Tables_number   1
_chemical_formula_structural   YInH12C2(Br3N)2
_chemical_formula_sum   'Y2 In2 H24 C4 Br12 N4'
_cell_volume   776.13969613
_cell_formula_units_Z   2
loop_
 _symmetry_equiv_pos_site_id
 _symmetry_equiv_pos_as_xyz
  1  'x, y, z'
loop_
 _atom_site_type_symbol
 _atom_site_label
 _atom_site_symmetry_multiplicity
 _atom_site_fract_x
 _atom_site_fract_y
 _atom_site_fract_z
 _atom_site_occupancy
  C  C0  1  0.41839885  0.25142657  0.42103462  1
  C  C1  1  0.92139584  0.24876637  0.07886836  1
  C  C2  1  0.57840934  0.74855827  0.57693947  1
  C  C3  1  0.08109348  0.75114595  0.92277615  1
  N  N4  1  0.56305654  0.24779273  0.53161139  1
  N  N5  1  0.06583072  0.25216946  0.96793610  1
  N  N6  1  0.43419345  0.75208961  0.46571024  1
  N  N7  1  0.93677022  0.74770524  0.03383380  1
  H  H8  1  0.45916246  0.25368007  0.29018585  1
  H  H9  1  0.34659069  0.17492213  0.44902582  1
  H  H10  1  0.34875667  0.32763527  0.44468928  1
  H  H11  1  0.63200592  0.17684139  0.50934665  1
  H  H12  1  0.63431436  0.31941340  0.50616006  1
  H  H13  1  0.53235030  0.24444909  0.65910033  1
  H  H14  1  0.96242882  0.24658932  0.20961915  1
  H  H15  1  0.85152620  0.17258244  0.05547332  1
  H  H16  1  0.84973078  0.32530740  0.05087640  1
  H  H17  1  0.13697770  0.18053535  0.99333117  1
  H  H18  1  0.13501978  0.32309162  0.98970875  1
  H  H19  1  0.03466802  0.25540594  0.84053403  1
  H  H20  1  0.53710459  0.74632633  0.70759370  1
  H  H21  1  0.64818715  0.67235564  0.55358916  1
  H  H22  1  0.65024342  0.82507277  0.54915839  1
  H  H23  1  0.36507885  0.82303858  0.48730531  1
  H  H24  1  0.36284442  0.68053681  0.49096337  1
  H  H25  1  0.46558022  0.75529750  0.33834839  1
  H  H26  1  0.03991459  0.75337182  0.79208809  1
  H  H27  1  0.15100563  0.82731311  0.94613374  1
  H  H28  1  0.15277363  0.67459463  0.95063752  1
  H  H29  1  0.86558095  0.81932370  0.00845588  1
  H  H30  1  0.86755924  0.67679273  0.01197869  1
  H  H31  1  0.96782539  0.74445309  0.16123306  1
  Y  Y32  1  0.50090969  0.00003142  0.99961907  1
  Y  Y33  1  0.99953613  0.50006287  0.50093510  1
  In  In34  1  0.99998392  0.00033387  0.50032313  1
  In  In35  1  0.50020732  0.49996661  0.00014017  1
  Br  Br36  1  0.48604925  0.23591820  0.94171300  1
  Br  Br37  1  0.20202827  0.00825114  0.16015302  1
  Br  Br38  1  0.66016764  0.01936085  0.30627583  1
  Br  Br39  1  0.98352978  0.26423832  0.55906392  1
  Br  Br40  1  0.34076683  0.98110085  0.69366192  1
  Br  Br41  1  0.80049804  0.99130251  0.84077242  1
  Br  Br42  1  0.51655818  0.76408359  0.05710669  1
  Br  Br43  1  0.70067968  0.49139699  0.34047547  1
  Br  Br44  1  0.15964715  0.48143312  0.19475855  1
  Br  Br45  1  0.01428658  0.73606797  0.44359313  1
  Br  Br46  1  0.29888538  0.50839016  0.66030072  1
  Br  Br47  1  0.83991167  0.51955545  0.80715822  1
