# generated using pymatgen
data_YAgH12C2(Br3N)2
_symmetry_space_group_name_H-M   'P 1'
_cell_length_a   7.98798209
_cell_length_b   11.34088694
_cell_length_c   7.76317487
_cell_angle_alpha   88.27038045
_cell_angle_beta   90.00950992
_cell_angle_gamma   90.01428188
_symmetry_Int_Tables_number   1
_chemical_formula_structural   YAgH12C2(Br3N)2
_chemical_formula_sum   'Y2 Ag2 H24 C4 Br12 N4'
_cell_volume   702.95178656
_cell_formula_units_Z   2
loop_
 _symmetry_equiv_pos_site_id
 _symmetry_equiv_pos_as_xyz
  1  'x, y, z'
loop_
 _atom_site_type_symbol
 _atom_site_label
 _atom_site_symmetry_multiplicity
 _atom_site_fract_x
 _atom_site_fract_y
 _atom_site_fract_z
 _atom_site_occupancy
  C  C0  1  0.41208618  0.24761004  0.41894173  1
  C  C1  1  0.91257383  0.25239011  0.08119544  1
  C  C2  1  0.58791098  0.75239361  0.58107041  1
  C  C3  1  0.08743253  0.74761399  0.91881617  1
  N  N4  1  0.56567462  0.24551654  0.52585133  1
  N  N5  1  0.06585013  0.25441271  0.97387056  1
  N  N6  1  0.43432169  0.75448790  0.47416205  1
  N  N7  1  0.93415496  0.74558930  0.02613977  1
  H  H8  1  0.44867439  0.25053294  0.28323066  1
  H  H9  1  0.33918319  0.16813266  0.44844266  1
  H  H10  1  0.34048940  0.32637108  0.44819920  1
  H  H11  1  0.63670111  0.17159905  0.49973547  1
  H  H12  1  0.63802602  0.31955447  0.49659638  1
  H  H13  1  0.53867273  0.24441611  0.65740806  1
  H  H14  1  0.94954849  0.24941144  0.21679472  1
  H  H15  1  0.84074576  0.17366181  0.05208574  1
  H  H16  1  0.83972953  0.33190408  0.05192208  1
  H  H17  1  0.13817581  0.18036493  0.00296069  1
  H  H18  1  0.13706660  0.32831928  0.99979117  1
  H  H19  1  0.03850026  0.25552316  0.84238913  1
  H  H20  1  0.55132411  0.74947008  0.71678175  1
  H  H21  1  0.65950733  0.67363269  0.55181119  1
  H  H22  1  0.66081385  0.83187109  0.55156944  1
  H  H23  1  0.36329611  0.82840581  0.50027844  1
  H  H24  1  0.36196964  0.68045029  0.50341761  1
  H  H25  1  0.46132272  0.75558806  0.34260523  1
  H  H26  1  0.05045803  0.75059424  0.78321657  1
  H  H27  1  0.15925909  0.82634224  0.94792819  1
  H  H28  1  0.16027731  0.66810022  0.94808739  1
  H  H29  1  0.86182892  0.81963677  0.99705147  1
  H  H30  1  0.86294007  0.67168240  0.00021720  1
  H  H31  1  0.96150460  0.74447746  0.15762177  1
  Y  Y32  1  0.50000077  0.00000108  0.00000698  1
  Y  Y33  1  0.99999989  0.50000109  0.50000594  1
  Ag  Ag34  1  0.99999807  0.00000037  0.50000681  1
  Ag  Ag35  1  0.50000096  0.50000058  0.00000634  1
  Br  Br36  1  0.48855915  0.24572610  0.94657852  1
  Br  Br37  1  0.20053443  0.00842895  0.18685684  1
  Br  Br38  1  0.68975212  0.01219379  0.30299722  1
  Br  Br39  1  0.98827412  0.25426673  0.55339064  1
  Br  Br40  1  0.31024808  0.98781140  0.69701706  1
  Br  Br41  1  0.79946735  0.99157299  0.81315793  1
  Br  Br42  1  0.51144568  0.75427648  0.05343629  1
  Br  Br43  1  0.70050368  0.49154084  0.31303867  1
  Br  Br44  1  0.18969173  0.48785531  0.19706760  1
  Br  Br45  1  0.01172311  0.74573573  0.44662223  1
  Br  Br46  1  0.29949626  0.50846117  0.68697371  1
  Br  Br47  1  0.81030838  0.51214909  0.80294413  1
