# generated using pymatgen
data_ZrHgH12C2(Br3N)2
_symmetry_space_group_name_H-M   'P 1'
_cell_length_a   7.94614976
_cell_length_b   11.90304324
_cell_length_c   8.30179204
_cell_angle_alpha   79.55049246
_cell_angle_beta   90.00346085
_cell_angle_gamma   89.98596155
_symmetry_Int_Tables_number   1
_chemical_formula_structural   ZrHgH12C2(Br3N)2
_chemical_formula_sum   'Zr2 Hg2 H24 C4 Br12 N4'
_cell_volume   772.18875811
_cell_formula_units_Z   2
loop_
 _symmetry_equiv_pos_site_id
 _symmetry_equiv_pos_as_xyz
  1  'x, y, z'
loop_
 _atom_site_type_symbol
 _atom_site_label
 _atom_site_symmetry_multiplicity
 _atom_site_fract_x
 _atom_site_fract_y
 _atom_site_fract_z
 _atom_site_occupancy
  C  C0  1  0.42698182  0.24916345  0.39416902  1
  C  C1  1  0.93539550  0.24294345  0.10607066  1
  C  C2  1  0.56460886  0.74312599  0.60598494  1
  C  C3  1  0.07306201  0.74932566  0.89411009  1
  N  N4  1  0.54105410  0.25117269  0.53560891  1
  N  N5  1  0.05387544  0.25896371  0.96496005  1
  N  N6  1  0.44608845  0.75905013  0.46488071  1
  N  N7  1  0.95895163  0.75110730  0.03557256  1
  H  H8  1  0.50309719  0.25812414  0.28266253  1
  H  H9  1  0.35951541  0.16764802  0.41341247  1
  H  H10  1  0.33912140  0.32082562  0.38599075  1
  H  H11  1  0.62943889  0.18660257  0.54799175  1
  H  H12  1  0.60538515  0.32881001  0.51958272  1
  H  H13  1  0.47787037  0.24186354  0.64709840  1
  H  H14  1  0.00796587  0.23941930  0.21893760  1
  H  H15  1  0.86725634  0.16280485  0.10858765  1
  H  H16  1  0.84832937  0.31544384  0.09031283  1
  H  H17  1  0.14189949  0.19337901  0.97862571  1
  H  H18  1  0.11770781  0.33561082  0.95381736  1
  H  H19  1  0.99299183  0.25974480  0.85342957  1
  H  H20  1  0.49207599  0.73976765  0.71882753  1
  H  H21  1  0.63274004  0.66294035  0.60867843  1
  H  H22  1  0.65168311  0.81559334  0.59005612  1
  H  H23  1  0.38221893  0.83571713  0.45361123  1
  H  H24  1  0.35809401  0.69347873  0.47865366  1
  H  H25  1  0.50695323  0.75973418  0.35337604  1
  H  H26  1  0.99692842  0.75824178  0.78260358  1
  H  H27  1  0.16063990  0.82110658  0.88600176  1
  H  H28  1  0.14083931  0.66790350  0.91326677  1
  H  H29  1  0.89430486  0.82864325  0.01960896  1
  H  H30  1  0.87085707  0.68639631  0.04791063  1
  H  H31  1  0.02215044  0.74186089  0.14706239  1
  Zr  Zr32  1  0.50743950  0.99794583  0.00087867  1
  Zr  Zr33  1  0.99256888  0.49799845  0.50097603  1
  Hg  Hg34  1  0.01323988  0.99887440  0.49858648  1
  Hg  Hg35  1  0.48679241  0.49876184  0.99880379  1
  Br  Br36  1  0.48620801  0.22371190  0.93911370  1
  Br  Br37  1  0.20253633  0.98598519  0.12546903  1
  Br  Br38  1  0.63441617  0.00569561  0.29076408  1
  Br  Br39  1  0.97297032  0.27225591  0.56411260  1
  Br  Br40  1  0.38404992  0.99054052  0.70919485  1
  Br  Br41  1  0.81123417  0.01171536  0.87100755  1
  Br  Br42  1  0.52709362  0.77220399  0.06398300  1
  Br  Br43  1  0.68868522  0.51178105  0.37122346  1
  Br  Br44  1  0.11579013  0.49046954  0.20926113  1
  Br  Br45  1  0.01368696  0.72375851  0.43907272  1
  Br  Br46  1  0.29751087  0.48605270  0.62549153  1
  Br  Br47  1  0.86571907  0.50581485  0.79089461  1
