# generated using pymatgen
data_ZrH12PtC2(Br3N)2
_symmetry_space_group_name_H-M   'P 1'
_cell_length_a   7.71334501
_cell_length_b   12.07986228
_cell_length_c   7.75084459
_cell_angle_alpha   81.90903969
_cell_angle_beta   104.31552206
_cell_angle_gamma   92.26586325
_symmetry_Int_Tables_number   1
_chemical_formula_structural   ZrH12PtC2(Br3N)2
_chemical_formula_sum   'Zr2 H24 Pt2 C4 Br12 N4'
_cell_volume   692.79479664
_cell_formula_units_Z   2
loop_
 _symmetry_equiv_pos_site_id
 _symmetry_equiv_pos_as_xyz
  1  'x, y, z'
loop_
 _atom_site_type_symbol
 _atom_site_label
 _atom_site_symmetry_multiplicity
 _atom_site_fract_x
 _atom_site_fract_y
 _atom_site_fract_z
 _atom_site_occupancy
  C  C0  1  0.40450610  0.24615476  0.40287707  1
  C  C1  1  0.92435804  0.25185707  0.08907756  1
  C  C2  1  0.59549470  0.75385064  0.59713979  1
  C  C3  1  0.07564136  0.74814700  0.91092886  1
  N  N4  1  0.58224416  0.23621628  0.53191515  1
  N  N5  1  0.08030302  0.26475499  0.00765546  1
  N  N6  1  0.41775344  0.76378544  0.46810747  1
  N  N7  1  0.91969823  0.73524952  0.99235385  1
  H  H8  1  0.42602427  0.25891466  0.26686863  1
  H  H9  1  0.32707026  0.16979320  0.42531789  1
  H  H10  1  0.33658959  0.31850680  0.42582359  1
  H  H11  1  0.65176825  0.16781754  0.51693874  1
  H  H12  1  0.65936305  0.30667908  0.51009487  1
  H  H13  1  0.56876733  0.22779834  0.66399317  1
  H  H14  1  0.97221259  0.23628222  0.23539795  1
  H  H15  1  0.84703259  0.17968055  0.04170788  1
  H  H16  1  0.84259097  0.32752140  0.04832290  1
  H  H17  1  0.15891425  0.19329537  0.04577854  1
  H  H18  1  0.15842022  0.33368278  0.04303797  1
  H  H19  1  0.04219108  0.27485683  0.86719381  1
  H  H20  1  0.57398139  0.74108927  0.73315016  1
  H  H21  1  0.66341366  0.68150040  0.57419059  1
  H  H22  1  0.67292557  0.83021404  0.57469632  1
  H  H23  1  0.34822613  0.83218196  0.48308744  1
  H  H24  1  0.34064100  0.69331984  0.48993135  1
  H  H25  1  0.43122498  0.77220475  0.33602801  1
  H  H26  1  0.02778469  0.76372451  0.76460877  1
  H  H27  1  0.15297029  0.82032176  0.95830080  1
  H  H28  1  0.15740592  0.67248153  0.95167905  1
  H  H29  1  0.84108897  0.80671020  0.95423340  1
  H  H30  1  0.84157837  0.66632284  0.95697128  1
  H  H31  1  0.95781245  0.72514663  0.13281551  1
  Zr  Zr32  1  0.50000021  0.00000060  0.00001147  1
  Zr  Zr33  1  0.99999896  0.50000046  0.49999880  1
  Pt  Pt34  1  0.00000131  0.00000145  0.50000964  1
  Pt  Pt35  1  0.50000459  0.50000240  0.99999369  1
  Br  Br36  1  0.46627053  0.21836180  0.91752330  1
  Br  Br37  1  0.22483129  0.99616536  0.14336903  1
  Br  Br38  1  0.69721281  0.02766811  0.33220410  1
  Br  Br39  1  0.01420638  0.27895734  0.56804900  1
  Br  Br40  1  0.30279049  0.97233646  0.66781423  1
  Br  Br41  1  0.77516610  0.00383661  0.85664781  1
  Br  Br42  1  0.53373035  0.78164004  0.08249993  1
  Br  Br43  1  0.65351821  0.49187032  0.31014636  1
  Br  Br44  1  0.13651973  0.49976375  0.22561001  1
  Br  Br45  1  0.98579342  0.72104370  0.43195982  1
  Br  Br46  1  0.34649172  0.50812720  0.68984180  1
  Br  Br47  1  0.86349071  0.50024044  0.77439380  1
