# generated using pymatgen
data_ZrCdH12C2(Br3N)2
_symmetry_space_group_name_H-M   'P 1'
_cell_length_a   8.08003329
_cell_length_b   11.84160422
_cell_length_c   8.12572068
_cell_angle_alpha   80.97348762
_cell_angle_beta   90.00201938
_cell_angle_gamma   89.98923586
_symmetry_Int_Tables_number   1
_chemical_formula_structural   ZrCdH12C2(Br3N)2
_chemical_formula_sum   'Zr2 Cd2 H24 C4 Br12 N4'
_cell_volume   767.84510985
_cell_formula_units_Z   2
loop_
 _symmetry_equiv_pos_site_id
 _symmetry_equiv_pos_as_xyz
  1  'x, y, z'
loop_
 _atom_site_type_symbol
 _atom_site_label
 _atom_site_symmetry_multiplicity
 _atom_site_fract_x
 _atom_site_fract_y
 _atom_site_fract_z
 _atom_site_occupancy
  C  C0  1  0.42563556  0.25211202  0.40773309  1
  C  C1  1  0.92545920  0.24785560  0.09228858  1
  C  C2  1  0.57442574  0.74788766  0.59226666  1
  C  C3  1  0.07447976  0.75216024  0.90773540  1
  N  N4  1  0.56927863  0.23907898  0.52354526  1
  N  N5  1  0.06917293  0.26094448  0.97659183  1
  N  N6  1  0.43076023  0.76091921  0.47648560  1
  N  N7  1  0.93076565  0.73906224  0.02343052  1
  H  H8  1  0.47200417  0.26131661  0.27966158  1
  H  H9  1  0.34752329  0.17590567  0.43488715  1
  H  H10  1  0.35673853  0.32854876  0.42668636  1
  H  H11  1  0.63865953  0.16771376  0.51022847  1
  H  H12  1  0.64552600  0.31073531  0.49989174  1
  H  H13  1  0.53263235  0.23077381  0.64818833  1
  H  H14  1  0.97177087  0.23858909  0.22040742  1
  H  H15  1  0.85664593  0.17142833  0.07322281  1
  H  H16  1  0.84730616  0.32405592  0.06516812  1
  H  H17  1  0.14548448  0.18931141  1.00024171  1
  H  H18  1  0.13844754  0.33232440  0.99000244  1
  H  H19  1  0.03259828  0.26928087  0.85190553  1
  H  H20  1  0.52806916  0.73866332  0.72035033  1
  H  H21  1  0.64332913  0.67146015  0.57328920  1
  H  H22  1  0.65251844  0.82409970  0.56512282  1
  H  H23  1  0.36137549  0.83227493  0.48982322  1
  H  H24  1  0.35452908  0.68925533  0.50013085  1
  H  H25  1  0.46738988  0.76923875  0.35182574  1
  H  H26  1  0.02816782  0.76143006  0.77961454  1
  H  H27  1  0.14328576  0.82858880  0.92680627  1
  H  H28  1  0.15263698  0.67596308  0.93484965  1
  H  H29  1  0.85445061  0.81069367  -0.00020982  1
  H  H30  1  0.86149393  0.66768261  0.01002066  1
  H  H31  1  0.96734734  0.73072364  0.14811994  1
  Zr  Zr32  1  0.49997472  0.00000184  0.00000256  1
  Zr  Zr33  1  0.00003693  0.49999752  0.49999165  1
  Cd  Cd34  1  0.99997665  0.99999639  0.50001426  1
  Cd  Cd35  1  0.50005760  0.50000445  0.99998723  1
  Br  Br36  1  0.48845678  0.22643145  0.92935577  1
  Br  Br37  1  0.20189667  0.99674574  0.13338027  1
  Br  Br38  1  0.63108353  0.01391965  0.29301859  1
  Br  Br39  1  0.98863930  0.27357310  0.57070083  1
  Br  Br40  1  0.36888153  0.98606994  0.70698255  1
  Br  Br41  1  0.79805768  0.00327196  0.86663255  1
  Br  Br42  1  0.51147292  0.77357240  0.07064797  1
  Br  Br43  1  0.70192210  0.50325586  0.36667946  1
  Br  Br44  1  0.13108535  0.48603621  0.20695840  1
  Br  Br45  1  0.01142753  0.72642289  0.42929510  1
  Br  Br46  1  0.29814921  0.49673964  0.63331150  1
  Br  Br47  1  0.86899677  0.51396084  0.79302589  1
