# generated using pymatgen
data_ZrH12PdC2(Br3N)2
_symmetry_space_group_name_H-M   'P 1'
_cell_length_a   8.16853203
_cell_length_b   10.33529509
_cell_length_c   7.98666743
_cell_angle_alpha   87.98337331
_cell_angle_beta   90.19036767
_cell_angle_gamma   90.06504085
_symmetry_Int_Tables_number   1
_chemical_formula_structural   ZrH12PdC2(Br3N)2
_chemical_formula_sum   'Zr2 H24 Pd2 C4 Br12 N4'
_cell_volume   673.84624920
_cell_formula_units_Z   2
loop_
 _symmetry_equiv_pos_site_id
 _symmetry_equiv_pos_as_xyz
  1  'x, y, z'
loop_
 _atom_site_type_symbol
 _atom_site_label
 _atom_site_symmetry_multiplicity
 _atom_site_fract_x
 _atom_site_fract_y
 _atom_site_fract_z
 _atom_site_occupancy
  C  C0  1  0.43898389  0.24652555  0.43429511  1
  C  C1  1  0.93967324  0.25366409  0.06580624  1
  C  C2  1  0.56099078  0.75348740  0.56575107  1
  C  C3  1  0.06031175  0.74631649  0.93429412  1
  N  N4  1  0.58659266  0.23903881  0.54298278  1
  N  N5  1  0.08671547  0.26108131  0.95732321  1
  N  N6  1  0.41334056  0.76092068  0.45713163  1
  N  N7  1  0.91328455  0.73893521  0.04280342  1
  H  H8  1  0.47816767  0.25599325  0.30377939  1
  H  H9  1  0.36650228  0.15858349  0.45449506  1
  H  H10  1  0.36799630  0.33124519  0.46745755  1
  H  H11  1  0.65564885  0.15780123  0.51899602  1
  H  H12  1  0.66075088  0.31910086  0.51857604  1
  H  H13  1  0.55735539  0.23644594  0.66966479  1
  H  H14  1  0.97960019  0.24403265  0.19638759  1
  H  H15  1  0.86818800  0.16901039  0.03250628  1
  H  H16  1  0.86743489  0.34163964  0.04569936  1
  H  H17  1  0.16077340  0.18105040  0.98190291  1
  H  H18  1  0.15609959  0.34236897  0.98119295  1
  H  H19  1  0.05681870  0.26358945  0.83055159  1
  H  H20  1  0.52185827  0.74401638  0.69628112  1
  H  H21  1  0.63198267  0.66877281  0.53258483  1
  H  H22  1  0.63344881  0.84143530  0.54548572  1
  H  H23  1  0.34428897  0.84216086  0.48110245  1
  H  H24  1  0.33920722  0.68084843  0.48156609  1
  H  H25  1  0.44254198  0.76349718  0.33044133  1
  H  H26  1  0.02037604  0.75591253  0.80371213  1
  H  H27  1  0.13180361  0.83098114  0.96754535  1
  H  H28  1  0.13254093  0.65833997  0.95444032  1
  H  H29  1  0.83926018  0.81898374  0.01824712  1
  H  H30  1  0.84385469  0.65765724  0.01895348  1
  H  H31  1  0.94321249  0.73642616  0.16956322  1
  Zr  Zr32  1  0.50007994  0.99982247  0.99988427  1
  Zr  Zr33  1  0.99974592  0.50002510  0.50008757  1
  Pd  Pd34  1  0.99930723  0.99997090  0.50038110  1
  Pd  Pd35  1  0.50203507  0.50052379  0.99705739  1
  Br  Br36  1  0.50598478  0.25687060  0.96163949  1
  Br  Br37  1  0.23239349  0.01011371  0.18856361  1
  Br  Br38  1  0.68896080  0.00603478  0.26949485  1
  Br  Br39  1  0.00634412  0.24306607  0.53839107  1
  Br  Br40  1  0.31111783  0.99394273  0.73040513  1
  Br  Br41  1  0.76777415  0.98988568  0.81137154  1
  Br  Br42  1  0.49360807  0.74300483  0.03880760  1
  Br  Br43  1  0.73163780  0.48949651  0.31053333  1
  Br  Br44  1  0.18822146  0.49478633  0.23158277  1
  Br  Br45  1  0.99363596  0.75696107  0.46180434  1
  Br  Br46  1  0.26809141  0.51049983  0.68977250  1
  Br  Br47  1  0.81148078  0.50521113  0.76899973  1
