# generated using pymatgen
data_BaH12RuC2(Br3N)2
_symmetry_space_group_name_H-M   'P 1'
_cell_length_a   8.01108749
_cell_length_b   11.32733894
_cell_length_c   7.73533476
_cell_angle_alpha   87.00715901
_cell_angle_beta   89.99759842
_cell_angle_gamma   90.01336522
_symmetry_Int_Tables_number   1
_chemical_formula_structural   BaH12RuC2(Br3N)2
_chemical_formula_sum   'Ba2 H24 Ru2 C4 Br12 N4'
_cell_volume   700.98014711
_cell_formula_units_Z   2
loop_
 _symmetry_equiv_pos_site_id
 _symmetry_equiv_pos_as_xyz
  1  'x, y, z'
loop_
 _atom_site_type_symbol
 _atom_site_label
 _atom_site_symmetry_multiplicity
 _atom_site_fract_x
 _atom_site_fract_y
 _atom_site_fract_z
 _atom_site_occupancy
  C  C0  1  0.39631935  0.25041980  0.41187700  1
  C  C1  1  0.89716690  0.24962373  0.08891915  1
  C  C2  1  0.60367764  0.74958440  0.58813593  1
  C  C3  1  0.10283807  0.75037884  0.91109146  1
  N  N4  1  0.54655346  0.24800370  0.52296474  1
  N  N5  1  0.04686777  0.25195966  0.97705541  1
  N  N6  1  0.45344317  0.75200296  0.47704775  1
  N  N7  1  0.95313757  0.74803970  0.02295531  1
  H  H8  1  0.43552390  0.25140303  0.27626077  1
  H  H9  1  0.32582398  0.16940363  0.44146603  1
  H  H10  1  0.32142282  0.32797180  0.43770680  1
  H  H11  1  0.61789021  0.17482848  0.49616558  1
  H  H12  1  0.61896713  0.32332633  0.49724282  1
  H  H13  1  0.51642706  0.24213991  0.65483704  1
  H  H14  1  0.93703538  0.24860147  0.22430713  1
  H  H15  1  0.82198243  0.17210320  0.06345703  1
  H  H16  1  0.82669424  0.33068608  0.05979136  1
  H  H17  1  0.11928373  0.17662428  0.00251684  1
  H  H18  1  0.11845004  0.32513011  0.00344464  1
  H  H19  1  0.01618194  0.25779328  0.84534229  1
  H  H20  1  0.56447387  0.74860270  0.72375183  1
  H  H21  1  0.67857172  0.67203139  0.56230608  1
  H  H22  1  0.67417555  0.83059967  0.55854508  1
  H  H23  1  0.38210814  0.82517813  0.50384834  1
  H  H24  1  0.38102813  0.67668024  0.50277000  1
  H  H25  1  0.48356945  0.75786627  0.34517651  1
  H  H26  1  0.06296892  0.75140330  0.77570340  1
  H  H27  1  0.17802160  0.82789914  0.93655621  1
  H  H28  1  0.17331162  0.66931647  0.94021521  1
  H  H29  1  0.88071869  0.82337373  0.99749510  1
  H  H30  1  0.88155805  0.67486779  0.99656579  1
  H  H31  1  0.98382343  0.74220628  0.15466901  1
  Ru  Ru32  1  0.50000183  0.00000164  0.00000761  1
  Ru  Ru33  1  0.99999946  0.50000189  0.50000603  1
  Ba  Ba34  1  0.00000062  0.00000204  0.50000696  1
  Ba  Ba35  1  0.49999968  0.50000192  0.00000621  1
  Br  Br36  1  0.47493066  0.22412937  0.94418667  1
  Br  Br37  1  0.21885639  0.00251885  0.15850101  1
  Br  Br38  1  0.65387566  0.01450937  0.29129092  1
  Br  Br39  1  0.97442265  0.27589495  0.55620494  1
  Br  Br40  1  0.34612617  0.98549553  0.70872473  1
  Br  Br41  1  0.78114756  0.99748278  0.84151476  1
  Br  Br42  1  0.52507469  0.77587408  0.05582835  1
  Br  Br43  1  0.71899577  0.49737088  0.34130481  1
  Br  Br44  1  0.15406093  0.48550129  0.20880046  1
  Br  Br45  1  0.02557481  0.72410889  0.44380746  1
  Br  Br46  1  0.28100353  0.50263307  0.65870712  1
  Br  Br47  1  0.84593741  0.51450225  0.79121094  1
