# generated using pymatgen
data_AgBH12C2(I3N)2
_symmetry_space_group_name_H-M   'P 1'
_cell_length_a   8.29338455
_cell_length_b   10.34315395
_cell_length_c   9.75994765
_cell_angle_alpha   95.33717657
_cell_angle_beta   95.08761820
_cell_angle_gamma   89.56948188
_symmetry_Int_Tables_number   1
_chemical_formula_structural   AgBH12C2(I3N)2
_chemical_formula_sum   'Ag2 B2 H24 C4 I12 N4'
_cell_volume   830.29193141
_cell_formula_units_Z   2
loop_
 _symmetry_equiv_pos_site_id
 _symmetry_equiv_pos_as_xyz
  1  'x, y, z'
loop_
 _atom_site_type_symbol
 _atom_site_label
 _atom_site_symmetry_multiplicity
 _atom_site_fract_x
 _atom_site_fract_y
 _atom_site_fract_z
 _atom_site_occupancy
  C  C0  1  0.50239519  0.26680606  0.44308404  1
  C  C1  1  0.97067454  0.21934503  0.04712087  1
  C  C2  1  0.53626195  0.70042972  0.58270747  1
  C  C3  1  0.02677811  0.78822063  0.91098435  1
  N  N4  1  0.54209614  0.27398780  0.59464097  1
  N  N5  1  0.03507050  0.23235814  0.91200127  1
  N  N6  1  0.46626361  0.77793160  0.47062250  1
  N  N7  1  0.93414609  0.75742605  0.02758165  1
  H  H8  1  0.61442870  0.25383962  0.39178244  1
  H  H9  1  0.42137013  0.18403686  0.41232619  1
  H  H10  1  0.44104208  0.35636412  0.41606369  1
  H  H11  1  0.59221158  0.18717843  0.62768126  1
  H  H12  1  0.62640040  0.34670184  0.63074806  1
  H  H13  1  0.44091412  0.29456245  0.64886181  1
  H  H14  1  0.07082101  0.20309265  0.12436081  1
  H  H15  1  0.88451879  0.13848620  0.03566650  1
  H  H16  1  0.90847722  0.30982792  0.07809080  1
  H  H17  1  0.07876384  0.14621639  0.86570478  1
  H  H18  1  0.12856894  0.30078915  0.91874819  1
  H  H19  1  0.94495356  0.26583709  0.84289921  1
  H  H20  1  0.43709398  0.65916177  0.63179818  1
  H  H21  1  0.61251080  0.62350447  0.53860255  1
  H  H22  1  0.60963141  0.76608134  0.65761056  1
  H  H23  1  0.39619520  0.85404157  0.51254659  1
  H  H24  1  0.39089053  0.72238518  0.39826557  1
  H  H25  1  0.55571172  0.81914386  0.41906440  1
  H  H26  1  0.94169087  0.79717941  0.82016686  1
  H  H27  1  0.09189418  0.87965588  0.93904825  1
  H  H28  1  0.11185083  0.70861179  0.89056668  1
  H  H29  1  0.86178046  0.83305834  0.06470257  1
  H  H30  1  0.86113709  0.67668715  0.99543909  1
  H  H31  1  0.01143575  0.73219420  0.11041370  1
  B  B32  1  0.40791775  0.98087657  0.10541625  1
  B  B33  1  0.00324734  0.51041844  0.36020913  1
  Ag  Ag34  1  0.93696669  0.99534482  0.54201381  1
  Ag  Ag35  1  0.60465753  0.47690712  0.98901920  1
  I  I36  1  0.45643595  0.17203378  0.05207780  1
  I  I37  1  0.22730859  0.96616546  0.24908996  1
  I  I38  1  0.75026857  0.96083559  0.29469547  1
  I  I39  1  0.02346563  0.31852719  0.44546344  1
  I  I40  1  0.24756337  0.02531249  0.66128124  1
  I  I41  1  0.73287662  0.02149531  0.75538672  1
  I  I42  1  0.47108692  0.80748610  0.98458463  1
  I  I43  1  0.73181257  0.53333265  0.26278943  1
  I  I44  1  0.18169470  0.52527045  0.20016753  1
  I  I45  1  0.04492829  0.67847504  0.51960256  1
  I  I46  1  0.31326815  0.46133655  0.82921569  1
  I  I47  1  0.81854572  0.49111799  0.78938188  1
