# generated using pymatgen
data_TlH12RhC2(Br3N)2
_symmetry_space_group_name_H-M   'P 1'
_cell_length_a   7.98802853
_cell_length_b   11.28370371
_cell_length_c   7.74504836
_cell_angle_alpha   85.72280756
_cell_angle_beta   90.00016403
_cell_angle_gamma   90.03810512
_symmetry_Int_Tables_number   1
_chemical_formula_structural   TlH12RhC2(Br3N)2
_chemical_formula_sum   'Tl2 H24 Rh2 C4 Br12 N4'
_cell_volume   696.15200459
_cell_formula_units_Z   2
loop_
 _symmetry_equiv_pos_site_id
 _symmetry_equiv_pos_as_xyz
  1  'x, y, z'
loop_
 _atom_site_type_symbol
 _atom_site_label
 _atom_site_symmetry_multiplicity
 _atom_site_fract_x
 _atom_site_fract_y
 _atom_site_fract_z
 _atom_site_occupancy
  C  C0  1  0.39566762  0.24985730  0.41171839  1
  C  C1  1  0.89667146  0.25020490  0.08918117  1
  C  C2  1  0.60432876  0.75014702  0.58829480  1
  C  C3  1  0.10333443  0.74979711  0.91082983  1
  N  N4  1  0.54599361  0.24725072  0.52364448  1
  N  N5  1  0.04641555  0.25275220  0.97642934  1
  N  N6  1  0.45400234  0.75275506  0.47636923  1
  N  N7  1  0.95359069  0.74724646  0.02358222  1
  H  H8  1  0.43557100  0.25247431  0.27641962  1
  H  H9  1  0.32361396  0.16886384  0.44314860  1
  H  H10  1  0.32152339  0.32804946  0.43565025  1
  H  H11  1  0.61853663  0.17415207  0.50082558  1
  H  H12  1  0.61845884  0.32314369  0.49671026  1
  H  H13  1  0.51495394  0.24132712  0.65528327  1
  H  H14  1  0.93728713  0.24761836  0.22423619  1
  H  H15  1  0.82216311  0.17202315  0.06572387  1
  H  H16  1  0.82468677  0.33123136  0.05816296  1
  H  H17  1  0.11880805  0.17683957  0.00308192  1
  H  H18  1  0.11927785  0.32583908  0.99877821  1
  H  H19  1  0.01474915  0.25861863  0.84496949  1
  H  H20  1  0.56442662  0.74753133  0.72359358  1
  H  H21  1  0.67847089  0.67195378  0.56436288  1
  H  H22  1  0.67638455  0.83113946  0.55686309  1
  H  H23  1  0.38146015  0.82585401  0.49918909  1
  H  H24  1  0.38153620  0.67686224  0.50330296  1
  H  H25  1  0.48504178  0.75867891  0.34473067  1
  H  H26  1  0.06271830  0.75238564  0.77577470  1
  H  H27  1  0.17784190  0.82797877  0.93428994  1
  H  H28  1  0.17532015  0.66877069  0.94184466  1
  H  H29  1  0.88119527  0.82315769  0.99693122  1
  H  H30  1  0.88073142  0.67415809  0.00123313  1
  H  H31  1  0.98525749  0.74138013  0.15504213  1
  Rh  Rh32  1  0.50000278  0.00000261  0.00000838  1
  Rh  Rh33  1  0.99999778  0.50000181  0.50000382  1
  Tl  Tl34  1  0.00000089  0.00000249  0.50000810  1
  Tl  Tl35  1  0.49999942  0.50000383  1.00000111  1
  Br  Br36  1  0.47496209  0.22257125  0.94533510  1
  Br  Br37  1  0.22296272  0.99878109  0.15825922  1
  Br  Br38  1  0.65009936  0.01336202  0.28607158  1
  Br  Br39  1  0.97432368  0.27746518  0.55510273  1
  Br  Br40  1  0.34990444  0.98664415  0.71394620  1
  Br  Br41  1  0.77704288  0.00122187  0.84175768  1
  Br  Br42  1  0.52504496  0.77743442  0.05468163  1
  Br  Br43  1  0.72317701  0.50107115  0.34136125  1
  Br  Br44  1  0.15047257  0.48671205  0.21410221  1
  Br  Br45  1  0.02567148  0.72253857  0.44490798  1
  Br  Br46  1  0.27681869  0.49893264  0.65864585  1
  Br  Br47  1  0.84952398  0.51329103  0.78590600  1
