# generated using pymatgen
data_H12RhAuC2(Br3N)2
_symmetry_space_group_name_H-M   'P 1'
_cell_length_a   7.60940968
_cell_length_b   12.18000601
_cell_length_c   7.37866871
_cell_angle_alpha   82.78875428
_cell_angle_beta   103.13241558
_cell_angle_gamma   90.31939941
_symmetry_Int_Tables_number   1
_chemical_formula_structural   H12RhAuC2(Br3N)2
_chemical_formula_sum   'H24 Rh2 Au2 C4 Br12 N4'
_cell_volume   660.53534667
_cell_formula_units_Z   2
loop_
 _symmetry_equiv_pos_site_id
 _symmetry_equiv_pos_as_xyz
  1  'x, y, z'
loop_
 _atom_site_type_symbol
 _atom_site_label
 _atom_site_symmetry_multiplicity
 _atom_site_fract_x
 _atom_site_fract_y
 _atom_site_fract_z
 _atom_site_occupancy
  C  C0  1  0.42070447  0.26226738  0.40366467  1
  C  C1  1  0.92401828  0.23971217  0.08739860  1
  C  C2  1  0.57929227  0.73773560  0.59634813  1
  C  C3  1  0.07598723  0.76029122  0.91261467  1
  N  N4  1  0.59444545  0.22583526  0.53279023  1
  N  N5  1  0.08990085  0.27211974  0.02400577  1
  N  N6  1  0.40555213  0.77416831  0.46722155  1
  N  N7  1  0.91010220  0.72788333  0.97600334  1
  H  H8  1  0.44412769  0.28355340  0.26262611  1
  H  H9  1  0.32653619  0.19414139  0.40636397  1
  H  H10  1  0.36811586  0.33405650  0.45106197  1
  H  H11  1  0.63925287  0.15160786  0.50188936  1
  H  H12  1  0.69668674  0.28196874  0.52391818  1
  H  H13  1  0.57989493  0.21422842  0.67173573  1
  H  H14  1  0.95861139  0.21476278  0.23906516  1
  H  H15  1  0.86482486  0.17069516  0.01518775  1
  H  H16  1  0.82994692  0.31071054  0.05451013  1
  H  H17  1  0.18591980  0.20810482  0.06080437  1
  H  H18  1  0.14122350  0.34298548  0.08052884  1
  H  H19  1  0.06438596  0.28937621  0.87773237  1
  H  H20  1  0.55586841  0.71645039  0.73738659  1
  H  H21  1  0.63188019  0.66594589  0.54895181  1
  H  H22  1  0.67346149  0.80586109  0.59364856  1
  H  H23  1  0.36074554  0.84839612  0.49812160  1
  H  H24  1  0.30330967  0.71803552  0.47609293  1
  H  H25  1  0.42010376  0.78577483  0.32827644  1
  H  H26  1  0.04139697  0.78524091  0.76094818  1
  H  H27  1  0.13517890  0.82930807  0.98482693  1
  H  H28  1  0.17005855  0.68929288  0.94550480  1
  H  H29  1  0.81408398  0.79189860  0.93920345  1
  H  H30  1  0.85878081  0.65701796  0.91947836  1
  H  H31  1  0.93561458  0.71062639  0.12227627  1
  Rh  Rh32  1  0.50000224  0.00000164  0.00000788  1
  Rh  Rh33  1  0.99999930  0.50000150  0.50000598  1
  Au  Au34  1  0.00000200  0.00000189  0.50000798  1
  Au  Au35  1  0.49999950  0.50000146  0.00000604  1
  Br  Br36  1  0.48083565  0.20812554  0.93794094  1
  Br  Br37  1  0.23019205  0.00565229  0.14450889  1
  Br  Br38  1  0.67802639  0.00247820  0.33655700  1
  Br  Br39  1  0.01811819  0.29191728  0.56280893  1
  Br  Br40  1  0.32197773  0.99752501  0.66345885  1
  Br  Br41  1  0.76981195  0.99435114  0.85550619  1
  Br  Br42  1  0.51916912  0.79187787  0.06207435  1
  Br  Br43  1  0.66824521  0.49570778  0.32757248  1
  Br  Br44  1  0.14305737  0.50442389  0.22371904  1
  Br  Br45  1  0.98187948  0.70808564  0.43720233  1
  Br  Br46  1  0.33175342  0.50429511  0.67243968  1
  Br  Br47  1  0.85694170  0.49557908  0.77629321  1
