# generated using pymatgen
data_InH12RhC2(Br3N)2
_symmetry_space_group_name_H-M   'P 1'
_cell_length_a   7.92436010
_cell_length_b   11.07374080
_cell_length_c   7.70007775
_cell_angle_alpha   86.88202869
_cell_angle_beta   89.99750334
_cell_angle_gamma   90.02841354
_symmetry_Int_Tables_number   1
_chemical_formula_structural   InH12RhC2(Br3N)2
_chemical_formula_sum   'In2 H24 Rh2 C4 Br12 N4'
_cell_volume   674.69925767
_cell_formula_units_Z   2
loop_
 _symmetry_equiv_pos_site_id
 _symmetry_equiv_pos_as_xyz
  1  'x, y, z'
loop_
 _atom_site_type_symbol
 _atom_site_label
 _atom_site_symmetry_multiplicity
 _atom_site_fract_x
 _atom_site_fract_y
 _atom_site_fract_z
 _atom_site_occupancy
  C  C0  1  0.40376656  0.24913844  0.41570162  1
  C  C1  1  0.90460898  0.25090656  0.08482429  1
  C  C2  1  0.59623040  0.75086572  0.58431105  1
  C  C3  1  0.09539620  0.74909643  0.91518682  1
  N  N4  1  0.55566788  0.24664831  0.52734358  1
  N  N5  1  0.05603738  0.25331924  0.97248630  1
  N  N6  1  0.44432878  0.75335749  0.47266956  1
  N  N7  1  0.94396810  0.74668027  0.02752530  1
  H  H8  1  0.44347176  0.25217715  0.27965081  1
  H  H9  1  0.33120011  0.16682564  0.44506769  1
  H  H10  1  0.32914854  0.32871168  0.44221390  1
  H  H11  1  0.62827841  0.17168953  0.50368335  1
  H  H12  1  0.62926843  0.32303348  0.50001395  1
  H  H13  1  0.52514030  0.24253695  0.65954799  1
  H  H14  1  0.94492930  0.24789022  0.22067977  1
  H  H15  1  0.82969089  0.17134849  0.05872830  1
  H  H16  1  0.83210943  0.33324435  0.05579444  1
  H  H17  1  0.12957734  0.17692682  0.99958166  1
  H  H18  1  0.12889929  0.32827334  0.99569920  1
  H  H19  1  0.02495813  0.25737189  0.84041649  1
  H  H20  1  0.55652576  0.74782745  0.72036194  1
  H  H21  1  0.67084674  0.67129163  0.55779836  1
  H  H22  1  0.66879854  0.83317769  0.55494471  1
  H  H23  1  0.37171989  0.82831707  0.49633016  1
  H  H24  1  0.37072685  0.67697307  0.49999883  1
  H  H25  1  0.47485625  0.75746876  0.34046497  1
  H  H26  1  0.05507550  0.75211405  0.77933140  1
  H  H27  1  0.17031242  0.82865508  0.94128475  1
  H  H28  1  0.16789785  0.66675935  0.94421409  1
  H  H29  1  0.87042509  0.82307118  0.00043097  1
  H  H30  1  0.87110921  0.67172462  0.00431162  1
  H  H31  1  0.97504744  0.74262763  0.15959502  1
  Rh  Rh32  1  0.50000185  0.00000199  0.00000721  1
  Rh  Rh33  1  0.99999913  0.50000158  0.50000550  1
  In  In34  1  0.99999949  0.00000183  0.50000649  1
  In  In35  1  0.50000020  0.50000208  0.00000564  1
  Br  Br36  1  0.48134507  0.22852885  0.95196163  1
  Br  Br37  1  0.22703571  0.99974431  0.17580201  1
  Br  Br38  1  0.66924114  0.00913761  0.28102567  1
  Br  Br39  1  0.98077743  0.27150907  0.54825858  1
  Br  Br40  1  0.33076111  0.99086762  0.71898939  1
  Br  Br41  1  0.77296808  0.00025788  0.82421283  1
  Br  Br42  1  0.51865978  0.77147521  0.04805294  1
  Br  Br43  1  0.72719419  0.50021653  0.32392728  1
  Br  Br44  1  0.16951348  0.49094233  0.21907430  1
  Br  Br45  1  0.01921984  0.72849406  0.45175383  1
  Br  Br46  1  0.27280447  0.49978659  0.67608368  1
  Br  Br47  1  0.83048499  0.50906115  0.78093671  1
