# generated using pymatgen
data_AgH12RhC2(Br3N)2
_symmetry_space_group_name_H-M   'P 1'
_cell_length_a   7.57851666
_cell_length_b   11.13844973
_cell_length_c   7.52573719
_cell_angle_alpha   86.52674479
_cell_angle_beta   90.04285881
_cell_angle_gamma   90.03991109
_symmetry_Int_Tables_number   1
_chemical_formula_structural   AgH12RhC2(Br3N)2
_chemical_formula_sum   'Ag2 H24 Rh2 C4 Br12 N4'
_cell_volume   634.10231862
_cell_formula_units_Z   2
loop_
 _symmetry_equiv_pos_site_id
 _symmetry_equiv_pos_as_xyz
  1  'x, y, z'
loop_
 _atom_site_type_symbol
 _atom_site_label
 _atom_site_symmetry_multiplicity
 _atom_site_fract_x
 _atom_site_fract_y
 _atom_site_fract_z
 _atom_site_occupancy
  C  C0  1  0.39830521  0.24851904  0.40820338  1
  C  C1  1  0.89958075  0.25155530  0.09243365  1
  C  C2  1  0.60168914  0.75148466  0.59180898  1
  C  C3  1  0.10042813  0.74844824  0.90757718  1
  N  N4  1  0.55409608  0.24579457  0.52531055  1
  N  N5  1  0.05465817  0.25421121  0.97460546  1
  N  N6  1  0.44589723  0.75420975  0.47470305  1
  N  N7  1  0.94535011  0.74578946  0.02540453  1
  H  H8  1  0.44241624  0.25308189  0.27000854  1
  H  H9  1  0.32158147  0.16679336  0.43628680  1
  H  H10  1  0.32009842  0.32739001  0.43411857  1
  H  H11  1  0.63159920  0.17181410  0.50347943  1
  H  H12  1  0.63049673  0.32210838  0.49938935  1
  H  H13  1  0.51986811  0.24130704  0.66023196  1
  H  H14  1  0.94455199  0.24702552  0.23039794  1
  H  H15  1  0.82095598  0.17268743  0.06698280  1
  H  H16  1  0.82293400  0.33330290  0.06470119  1
  H  H17  1  0.13096785  0.17787812  1.00027524  1
  H  H18  1  0.13250390  0.32818321  0.99599474  1
  H  H19  1  0.01964885  0.25865188  0.83984453  1
  H  H20  1  0.55757929  0.74692131  0.73000420  1
  H  H21  1  0.67989546  0.67261374  0.56589233  1
  H  H22  1  0.67841293  0.83321036  0.56372559  1
  H  H23  1  0.36839451  0.82819023  0.49653514  1
  H  H24  1  0.36949651  0.67789596  0.50062403  1
  H  H25  1  0.48012471  0.75869760  0.33978150  1
  H  H26  1  0.05545745  0.75298022  0.76961249  1
  H  H27  1  0.17905192  0.82731588  0.93303132  1
  H  H28  1  0.17707556  0.66670066  0.93530672  1
  H  H29  1  0.86903853  0.82212175  -0.00026416  1
  H  H30  1  0.86750665  0.67181668  0.00401304  1
  H  H31  1  0.98035839  0.74134805  0.16016586  1
  Rh  Rh32  1  0.50000250  0.00000181  0.00000720  1
  Rh  Rh33  1  0.99999897  0.50000119  0.50000621  1
  Ag  Ag34  1  0.99999832  0.00000584  0.50000349  1
  Ag  Ag35  1  0.49999940  0.50000400  0.00000917  1
  Br  Br36  1  0.47921289  0.22680008  0.94903926  1
  Br  Br37  1  0.21089914  0.99610297  0.17875043  1
  Br  Br38  1  0.67471831  0.00636910  0.29213134  1
  Br  Br39  1  0.97839448  0.27323836  0.55129815  1
  Br  Br40  1  0.32528425  0.99363623  0.70788456  1
  Br  Br41  1  0.78910528  0.00389850  0.82126470  1
  Br  Br42  1  0.52079573  0.77320342  0.05097637  1
  Br  Br43  1  0.71084042  0.50381769  0.32086919  1
  Br  Br44  1  0.17480155  0.49381954  0.20813195  1
  Br  Br45  1  0.02159963  0.72676343  0.44871503  1
  Br  Br46  1  0.28915733  0.49618371  0.67914395  1
  Br  Br47  1  0.82519604  0.50618390  0.79187967  1
