# generated using pymatgen
data_HgH12PdC2(Br3N)2
_symmetry_space_group_name_H-M   'P 1'
_cell_length_a   7.90225657
_cell_length_b   11.15361696
_cell_length_c   8.03196196
_cell_angle_alpha   87.84119716
_cell_angle_beta   90.00912820
_cell_angle_gamma   90.01294618
_symmetry_Int_Tables_number   1
_chemical_formula_structural   HgH12PdC2(Br3N)2
_chemical_formula_sum   'Hg2 H24 Pd2 C4 Br12 N4'
_cell_volume   707.42456019
_cell_formula_units_Z   2
loop_
 _symmetry_equiv_pos_site_id
 _symmetry_equiv_pos_as_xyz
  1  'x, y, z'
loop_
 _atom_site_type_symbol
 _atom_site_label
 _atom_site_symmetry_multiplicity
 _atom_site_fract_x
 _atom_site_fract_y
 _atom_site_fract_z
 _atom_site_occupancy
  C  C0  1  0.42028069  0.24571448  0.41481877  1
  C  C1  1  0.92088859  0.25431997  0.08532120  1
  C  C2  1  0.57971903  0.75428900  0.58519356  1
  C  C3  1  0.07911446  0.74568444  0.91469085  1
  N  N4  1  0.56658461  0.24487885  0.53044834  1
  N  N5  1  0.06687864  0.25505432  0.96937232  1
  N  N6  1  0.43341363  0.75512574  0.46956437  1
  N  N7  1  0.93312472  0.74494631  0.03063990  1
  H  H8  1  0.46754243  0.25107513  0.28669915  1
  H  H9  1  0.34830578  0.16297688  0.43572102  1
  H  H10  1  0.34159909  0.32346227  0.43958162  1
  H  H11  1  0.64447163  0.17220075  0.50962992  1
  H  H12  1  0.63917839  0.32191206  0.50937087  1
  H  H13  1  0.53053938  0.24004195  0.65573525  1
  H  H14  1  0.96846645  0.24891509  0.21333989  1
  H  H15  1  0.84200819  0.17657669  0.06072404  1
  H  H16  1  0.84896786  0.33706826  0.06458678  1
  H  H17  1  0.13942262  0.17804423  0.99034435  1
  H  H18  1  0.14491154  0.32775601  0.99001648  1
  H  H19  1  0.03053837  0.25991119  0.84417684  1
  H  H20  1  0.53245775  0.74892851  0.71331326  1
  H  H21  1  0.65839853  0.67654023  0.56042980  1
  H  H22  1  0.65169523  0.83702565  0.56429083  1
  H  H23  1  0.35552892  0.82780507  0.49038355  1
  H  H24  1  0.36081903  0.67809404  0.49064227  1
  H  H25  1  0.46945873  0.75996260  0.34427794  1
  H  H26  1  0.03153622  0.75108940  0.78667236  1
  H  H27  1  0.15799168  0.82342905  0.93928910  1
  H  H28  1  0.15103834  0.66293753  0.93542381  1
  H  H29  1  0.86057769  0.82195534  0.00966971  1
  H  H30  1  0.85509403  0.67224335  0.00999456  1
  H  H31  1  0.96946495  0.74008899  0.15583573  1
  Pd  Pd32  1  0.50000121  0.00000133  0.00000623  1
  Pd  Pd33  1  0.99999982  0.50000141  0.50000623  1
  Hg  Hg34  1  0.99999967  0.00000188  0.50000611  1
  Hg  Hg35  1  0.50000052  0.50000185  0.00000542  1
  Br  Br36  1  0.48716085  0.21935739  0.93981865  1
  Br  Br37  1  0.23067346  0.00646489  0.15990945  1
  Br  Br38  1  0.73837130  0.00959861  0.32516407  1
  Br  Br39  1  0.98679311  0.28065767  0.56025413  1
  Br  Br40  1  0.26162815  0.99040556  0.67484838  1
  Br  Br41  1  0.76932933  0.99353750  0.84010396  1
  Br  Br42  1  0.51284211  0.78064538  0.06019453  1
  Br  Br43  1  0.73066083  0.49353077  0.34004489  1
  Br  Br44  1  0.23838388  0.49047257  0.17475862  1
  Br  Br45  1  0.01320614  0.71934520  0.43975886  1
  Br  Br46  1  0.26933926  0.50647219  0.65996681  1
  Br  Br47  1  0.76161686  0.50953071  0.82525185  1
