# generated using pymatgen
data_H12PdPtC2(Br3N)2
_symmetry_space_group_name_H-M   'P 1'
_cell_length_a   8.82077155
_cell_length_b   8.93908585
_cell_length_c   8.53813910
_cell_angle_alpha   90.11185585
_cell_angle_beta   90.00358247
_cell_angle_gamma   89.98558333
_symmetry_Int_Tables_number   1
_chemical_formula_structural   H12PdPtC2(Br3N)2
_chemical_formula_sum   'H24 Pd2 Pt2 C4 Br12 N4'
_cell_volume   673.22783866
_cell_formula_units_Z   2
loop_
 _symmetry_equiv_pos_site_id
 _symmetry_equiv_pos_as_xyz
  1  'x, y, z'
loop_
 _atom_site_type_symbol
 _atom_site_label
 _atom_site_symmetry_multiplicity
 _atom_site_fract_x
 _atom_site_fract_y
 _atom_site_fract_z
 _atom_site_occupancy
  C  C0  1  0.47752206  0.25023598  0.37790023  1
  C  C1  1  0.97725587  0.25045255  0.12211181  1
  C  C2  1  0.52252272  0.74974600  0.62212572  1
  C  C3  1  0.02268429  0.74957598  0.87789676  1
  N  N4  1  0.53907717  0.25096297  0.53956896  1
  N  N5  1  0.03908814  0.24857615  0.96056827  1
  N  N6  1  0.46097747  0.74903782  0.46045224  1
  N  N7  1  0.96087257  0.75142813  0.03944808  1
  H  H8  1  0.57221553  0.25064688  0.29524392  1
  H  H9  1  0.40771311  0.15023338  0.36218311  1
  H  H10  1  0.40729527  0.34989864  0.36210241  1
  H  H11  1  0.60636180  0.15808854  0.56031267  1
  H  H12  1  0.60754166  0.34340488  0.55870802  1
  H  H13  1  0.45257179  0.25248469  0.62193007  1
  H  H14  1  0.07181304  0.25033156  0.20495118  1
  H  H15  1  0.90681159  0.15105195  0.13845756  1
  H  H16  1  0.90761881  0.35070964  0.13702115  1
  H  H17  1  0.10766755  0.15599058  0.94241412  1
  H  H18  1  0.10634060  0.34128684  0.93915747  1
  H  H19  1  0.95273954  0.24642935  0.87803700  1
  H  H20  1  0.42782491  0.74933464  0.70477661  1
  H  H21  1  0.59274115  0.65007709  0.63791779  1
  H  H22  1  0.59233847  0.84974215  0.63785642  1
  H  H23  1  0.39369173  0.84191326  0.43971987  1
  H  H24  1  0.39251904  0.65659598  0.44129375  1
  H  H25  1  0.54749204  0.74752992  0.37810174  1
  H  H26  1  0.92811610  0.74969229  0.79507083  1
  H  H27  1  0.09311207  0.84898797  0.86155112  1
  H  H28  1  0.09233324  0.64932927  0.86296644  1
  H  H29  1  0.89229211  0.84400876  0.05762881  1
  H  H30  1  0.89362452  0.65871244  0.06085355  1
  H  H31  1  0.04722935  0.75356601  0.12197121  1
  Pd  Pd32  1  0.49998880  0.00000534  0.99999784  1
  Pd  Pd33  1  0.00000871  0.50000334  0.50000041  1
  Pt  Pt34  1  0.00001283  0.99999578  0.49999674  1
  Pt  Pt35  1  0.49999461  0.49999769  1.00000027  1
  Br  Br36  1  0.41766287  0.25172432  0.91521815  1
  Br  Br37  1  0.26097265  0.97716478  0.14698528  1
  Br  Br38  1  0.76147755  0.97646886  0.35265352  1
  Br  Br39  1  0.91767105  0.24831898  0.58478610  1
  Br  Br40  1  0.23854531  0.02351677  0.64734356  1
  Br  Br41  1  0.73900696  0.02285803  0.85301477  1
  Br  Br42  1  0.58231283  0.74828029  0.08477619  1
  Br  Br43  1  0.76104999  0.52308995  0.35297873  1
  Br  Br44  1  0.26155138  0.52365414  0.14745287  1
  Br  Br45  1  0.08236064  0.75167750  0.41520831  1
  Br  Br46  1  0.23895964  0.47692436  0.64703206  1
  Br  Br47  1  0.73844261  0.47633585  0.85255290  1
