# generated using pymatgen
data_HfH12PdC2(Br3N)2
_symmetry_space_group_name_H-M   'P 1'
_cell_length_a   8.27889489
_cell_length_b   10.14187634
_cell_length_c   8.15594242
_cell_angle_alpha   92.83576843
_cell_angle_beta   90.26804714
_cell_angle_gamma   89.87969779
_symmetry_Int_Tables_number   1
_chemical_formula_structural   HfH12PdC2(Br3N)2
_chemical_formula_sum   'Hf2 H24 Pd2 C4 Br12 N4'
_cell_volume   683.95444418
_cell_formula_units_Z   2
loop_
 _symmetry_equiv_pos_site_id
 _symmetry_equiv_pos_as_xyz
  1  'x, y, z'
loop_
 _atom_site_type_symbol
 _atom_site_label
 _atom_site_symmetry_multiplicity
 _atom_site_fract_x
 _atom_site_fract_y
 _atom_site_fract_z
 _atom_site_occupancy
  C  C0  1  0.44834674  0.25633474  0.43445332  1
  C  C1  1  0.94927305  0.24335132  0.06518529  1
  C  C2  1  0.55161024  0.74365800  0.56556960  1
  C  C3  1  0.05068755  0.75666594  0.93483053  1
  N  N4  1  0.59436525  0.26631937  0.54078311  1
  N  N5  1  0.09452917  0.23333053  0.95909696  1
  N  N6  1  0.40557712  0.73369810  0.45925934  1
  N  N7  1  0.90542748  0.76667079  0.04091238  1
  H  H8  1  0.48693011  0.24363144  0.30656046  1
  H  H9  1  0.37826586  0.17077572  0.46844884  1
  H  H10  1  0.37686506  0.34646798  0.45257370  1
  H  H11  1  0.66805834  0.18463465  0.51688084  1
  H  H12  1  0.66229216  0.34891011  0.51730894  1
  H  H13  1  0.56585792  0.27046776  0.66480555  1
  H  H14  1  0.98873834  0.25637070  0.19310055  1
  H  H15  1  0.87826042  0.15310963  0.04720205  1
  H  H16  1  0.87835874  0.32872978  0.03074198  1
  H  H17  1  0.16304586  0.15071921  0.98256235  1
  H  H18  1  0.16800243  0.31502966  0.98319740  1
  H  H19  1  0.06513231  0.22922097  0.83502869  1
  H  H20  1  0.51304436  0.75636940  0.69346701  1
  H  H21  1  0.62307060  0.65351445  0.54743980  1
  H  H22  1  0.62170676  0.82920686  0.53157036  1
  H  H23  1  0.33189906  0.81538830  0.48318756  1
  H  H24  1  0.33764521  0.65110716  0.48273154  1
  H  H25  1  0.43406640  0.72955644  0.33523363  1
  H  H26  1  0.01123567  0.74365783  0.80690923  1
  H  H27  1  0.12169346  0.84690623  0.95282965  1
  H  H28  1  0.12160751  0.67128540  0.96926212  1
  H  H29  1  0.83685759  0.84927216  0.01745835  1
  H  H30  1  0.83198464  0.68495600  0.01681785  1
  H  H31  1  0.93483179  0.77078036  0.16497993  1
  Pd  Pd32  1  0.50168091  0.99984962  0.99981366  1
  Pd  Pd33  1  0.00009209  0.50004737  0.50016487  1
  Hf  Hf34  1  0.99991952  0.99999732  0.49995153  1
  Hf  Hf35  1  0.50001431  0.50003089  1.00000250  1
  Br  Br36  1  0.51218758  0.24181256  0.95712203  1
  Br  Br37  1  0.18606080  0.00256761  0.24257874  1
  Br  Br38  1  0.74048381  0.01276063  0.31435393  1
  Br  Br39  1  0.01273961  0.25815458  0.54198192  1
  Br  Br40  1  0.25926589  0.98724988  0.68565738  1
  Br  Br41  1  0.81380544  0.99746494  0.75745125  1
  Br  Br42  1  0.48742145  0.75818431  0.04285442  1
  Br  Br43  1  0.68669724  0.49593908  0.25863386  1
  Br  Br44  1  0.24111899  0.48788351  0.18398928  1
  Br  Br45  1  0.98709506  0.74185636  0.45800034  1
  Br  Br46  1  0.31329688  0.50406116  0.74133657  1
  Br  Br47  1  0.75887695  0.51212146  0.81601543  1
