# generated using pymatgen
data_BaH12PdC2(Br3N)2
_symmetry_space_group_name_H-M   'P 1'
_cell_length_a   7.67070660
_cell_length_b   12.87401180
_cell_length_c   7.71547673
_cell_angle_alpha   90.61104606
_cell_angle_beta   89.99999831
_cell_angle_gamma   90.00684034
_symmetry_Int_Tables_number   1
_chemical_formula_structural   BaH12PdC2(Br3N)2
_chemical_formula_sum   'Ba2 H24 Pd2 C4 Br12 N4'
_cell_volume   761.88134328
_cell_formula_units_Z   2
loop_
 _symmetry_equiv_pos_site_id
 _symmetry_equiv_pos_as_xyz
  1  'x, y, z'
loop_
 _atom_site_type_symbol
 _atom_site_label
 _atom_site_symmetry_multiplicity
 _atom_site_fract_x
 _atom_site_fract_y
 _atom_site_fract_z
 _atom_site_occupancy
  C  C0  1  0.41040375  0.25118815  0.40288145  1
  C  C1  1  0.91038872  0.24885210  0.09718748  1
  C  C2  1  0.58959403  0.74883351  0.59707221  1
  C  C3  1  0.08958622  0.75120063  0.90284949  1
  N  N4  1  0.55306555  0.25536749  0.53152343  1
  N  N5  1  0.05302603  0.24459802  0.96852826  1
  N  N6  1  0.44691670  0.74454549  0.46845587  1
  N  N7  1  0.94694864  0.75535612  0.03151551  1
  H  H8  1  0.46683712  0.25005818  0.27256646  1
  H  H9  1  0.33558296  0.18003059  0.42221424  1
  H  H10  1  0.32636283  0.31911875  0.42146550  1
  H  H11  1  0.63718930  0.19318993  0.51800181  1
  H  H12  1  0.62831687  0.32170492  0.51485477  1
  H  H13  1  0.50868617  0.25586512  0.66089254  1
  H  H14  1  0.96684210  0.25000014  0.22749261  1
  H  H15  1  0.82629017  0.18092334  0.07866870  1
  H  H16  1  0.83562338  0.32000965  0.07780802  1
  H  H17  1  0.12818543  0.17823872  0.98520901  1
  H  H18  1  0.13725741  0.30674593  0.98202118  1
  H  H19  1  0.00863682  0.24411879  0.83916572  1
  H  H20  1  0.53317920  0.74998167  0.72739699  1
  H  H21  1  0.67369837  0.68092121  0.57854447  1
  H  H22  1  0.66433787  0.82000652  0.57765410  1
  H  H23  1  0.36263802  0.80665150  0.48197753  1
  H  H24  1  0.37180753  0.67814995  0.48514853  1
  H  H25  1  0.49127064  0.74408612  0.33908048  1
  H  H26  1  0.03312595  0.75007490  0.77254688  1
  H  H27  1  0.17361949  0.81915104  0.92143223  1
  H  H28  1  0.16442232  0.68006087  0.92215737  1
  H  H29  1  0.87167840  0.82167144  0.01486311  1
  H  H30  1  0.86283594  0.69315516  0.01799199  1
  H  H31  1  0.99134200  0.75585108  0.16087654  1
  Pd  Pd32  1  0.50009927  0.00002119  0.00002951  1
  Pd  Pd33  1  0.99995467  0.50001732  0.50001132  1
  Ba  Ba34  1  0.00008380  0.00003375  0.50003950  1
  Ba  Ba35  1  0.49998100  0.50002821  1.00001723  1
  Br  Br36  1  0.47436216  0.26293853  0.93835271  1
  Br  Br37  1  0.20432140  0.01492719  0.12775229  1
  Br  Br38  1  0.62880856  0.00886243  0.29611295  1
  Br  Br39  1  0.97439310  0.23712636  0.56169092  1
  Br  Br40  1  0.37136533  0.99118907  0.70393205  1
  Br  Br41  1  0.79582731  0.98510266  0.87229884  1
  Br  Br42  1  0.52560020  0.73712995  0.06161724  1
  Br  Br43  1  0.70422581  0.48511026  0.37226628  1
  Br  Br44  1  0.12870539  0.49121930  0.20393105  1
  Br  Br45  1  0.02562197  0.76294119  0.43834687  1
  Br  Br46  1  0.29572991  0.51488652  0.62775357  1
  Br  Br47  1  0.87124792  0.50883732  0.79609979  1
