# generated using pymatgen
data_CdH12PdC2(Br3N)2
_symmetry_space_group_name_H-M   'P 1'
_cell_length_a   7.94770595
_cell_length_b   10.86837479
_cell_length_c   8.02317320
_cell_angle_alpha   88.28435281
_cell_angle_beta   89.99214646
_cell_angle_gamma   90.01008189
_symmetry_Int_Tables_number   1
_chemical_formula_structural   CdH12PdC2(Br3N)2
_chemical_formula_sum   'Cd2 H24 Pd2 C4 Br12 N4'
_cell_volume   692.72015669
_cell_formula_units_Z   2
loop_
 _symmetry_equiv_pos_site_id
 _symmetry_equiv_pos_as_xyz
  1  'x, y, z'
loop_
 _atom_site_type_symbol
 _atom_site_label
 _atom_site_symmetry_multiplicity
 _atom_site_fract_x
 _atom_site_fract_y
 _atom_site_fract_z
 _atom_site_occupancy
  C  C0  1  0.42864154  0.24555923  0.41720360  1
  C  C1  1  0.92909619  0.25435895  0.08270210  1
  C  C2  1  0.57135684  0.75444317  0.58280760  1
  C  C3  1  0.07090712  0.74564682  0.91730863  1
  N  N4  1  0.57255173  0.24637057  0.53451072  1
  N  N5  1  0.07285396  0.25358532  0.96516650  1
  N  N6  1  0.42744657  0.75363439  0.46550038  1
  N  N7  1  0.92714882  0.74641582  0.03484399  1
  H  H8  1  0.47743165  0.24925009  0.28965399  1
  H  H9  1  0.35724999  0.16075012  0.43872973  1
  H  H10  1  0.34974589  0.32566006  0.43933566  1
  H  H11  1  0.65046073  0.17169559  0.51440895  1
  H  H12  1  0.64440154  0.32531501  0.51342369  1
  H  H13  1  0.53548740  0.24257490  0.65932149  1
  H  H14  1  0.97805703  0.25068015  0.21016786  1
  H  H15  1  0.85020687  0.17421997  0.06068673  1
  H  H16  1  0.85764196  0.33913619  0.06128362  1
  H  H17  1  0.14474857  0.17468564  0.98615071  1
  H  H18  1  0.15076554  0.32830644  0.98513583  1
  H  H19  1  0.03562446  0.25737551  0.84041363  1
  H  H20  1  0.52256720  0.75075089  0.71035739  1
  H  H21  1  0.65025109  0.67434196  0.56067387  1
  H  H22  1  0.64275016  0.83925169  0.56128270  1
  H  H23  1  0.34953999  0.82831053  0.48560283  1
  H  H24  1  0.35559424  0.67469075  0.48658744  1
  H  H25  1  0.46451085  0.75743027  0.34068965  1
  H  H26  1  0.02194589  0.74932420  0.78984299  1
  H  H27  1  0.14979126  0.82578833  0.93932442  1
  H  H28  1  0.14236682  0.66087191  0.93872641  1
  H  H29  1  0.85525080  0.82531401  0.01386192  1
  H  H30  1  0.84924036  0.67169348  0.01487195  1
  H  H31  1  0.96437784  0.74262499  0.15959703  1
  Pd  Pd32  1  0.50000217  0.00000275  0.00000800  1
  Pd  Pd33  1  0.99999783  0.50000088  0.50000062  1
  Cd  Cd34  1  0.99999867  0.99999995  0.50000957  1
  Cd  Cd35  1  0.50003012  0.49999228  0.00004625  1
  Br  Br36  1  0.49081841  0.22626495  0.94369810  1
  Br  Br37  1  0.23351713  0.00558109  0.16683753  1
  Br  Br38  1  0.73905723  0.00965896  0.32360579  1
  Br  Br39  1  0.99049715  0.27373295  0.55622691  1
  Br  Br40  1  0.26094430  0.99034555  0.67640743  1
  Br  Br41  1  0.76648628  0.99442333  0.83317663  1
  Br  Br42  1  0.50918206  0.77374059  0.05631240  1
  Br  Br43  1  0.73356800  0.49446418  0.33313739  1
  Br  Br44  1  0.23898942  0.49035637  0.17633575  1
  Br  Br45  1  0.00949968  0.72626974  0.44378199  1
  Br  Br46  1  0.26641366  0.50553967  0.66686748  1
  Br  Br47  1  0.76101076  0.50964806  0.82367074  1
