# generated using pymatgen
data_AgBiH12C2(Br3N)2
_symmetry_space_group_name_H-M   'P 1'
_cell_length_a   8.00880645
_cell_length_b   11.45547621
_cell_length_c   7.79189518
_cell_angle_alpha   91.16889884
_cell_angle_beta   90.00125155
_cell_angle_gamma   89.98847656
_symmetry_Int_Tables_number   1
_chemical_formula_structural   AgBiH12C2(Br3N)2
_chemical_formula_sum   'Ag2 Bi2 H24 C4 Br12 N4'
_cell_volume   714.71624661
_cell_formula_units_Z   2
loop_
 _symmetry_equiv_pos_site_id
 _symmetry_equiv_pos_as_xyz
  1  'x, y, z'
loop_
 _atom_site_type_symbol
 _atom_site_label
 _atom_site_symmetry_multiplicity
 _atom_site_fract_x
 _atom_site_fract_y
 _atom_site_fract_z
 _atom_site_occupancy
  C  C0  1  0.40481540  0.25140918  0.41600223  1
  C  C1  1  0.90551101  0.24863162  0.08436084  1
  C  C2  1  0.59518268  0.74859514  0.58400993  1
  C  C3  1  0.09449492  0.75137253  0.91565114  1
  N  N4  1  0.55736279  0.25228927  0.52345574  1
  N  N5  1  0.05770930  0.24760925  0.97639495  1
  N  N6  1  0.44263380  0.74771504  0.47655859  1
  N  N7  1  0.94229383  0.75239175  0.02361380  1
  H  H8  1  0.44202078  0.24898586  0.28100998  1
  H  H9  1  0.33275075  0.17344933  0.44489871  1
  H  H10  1  0.33238145  0.33009788  0.44499806  1
  H  H11  1  0.62860175  0.17856626  0.49518794  1
  H  H12  1  0.62935065  0.32518920  0.49696461  1
  H  H13  1  0.52970416  0.25319125  0.65437242  1
  H  H14  1  0.94317221  0.25113262  0.21921760  1
  H  H15  1  0.83297117  0.16994368  0.05574426  1
  H  H16  1  0.83336018  0.32659792  0.05561196  1
  H  H17  1  0.12974114  0.17469238  0.00272545  1
  H  H18  1  0.12906272  0.32131079  0.00436142  1
  H  H19  1  0.02964888  0.24667366  0.84556734  1
  H  H20  1  0.55797938  0.75101869  0.71900270  1
  H  H21  1  0.66761632  0.66990640  0.55501308  1
  H  H22  1  0.66724689  0.82655498  0.55511192  1
  H  H23  1  0.37139530  0.82143818  0.50482736  1
  H  H24  1  0.37064617  0.67481513  0.50305101  1
  H  H25  1  0.47029080  0.74681287  0.34564174  1
  H  H26  1  0.05683210  0.74887350  0.78079243  1
  H  H27  1  0.16703214  0.83006017  0.94426899  1
  H  H28  1  0.16664555  0.67340631  0.94439523  1
  H  H29  1  0.87026221  0.82530803  0.99728737  1
  H  H30  1  0.87094420  0.67868995  0.99564797  1
  H  H31  1  0.97035636  0.75332658  0.15444497  1
  Ag  Ag32  1  0.49999943  0.00000078  0.00000653  1
  Ag  Ag33  1  0.00000227  0.50000101  0.50000594  1
  Bi  Bi34  1  0.99999869  0.00000152  0.50000674  1
  Bi  Bi35  1  0.50000188  0.50000148  0.00000684  1
  Br  Br36  1  0.48212689  0.25079272  0.94377070  1
  Br  Br37  1  0.19154297  0.01209188  0.18664432  1
  Br  Br38  1  0.68972493  0.00896144  0.31308569  1
  Br  Br39  1  0.98172342  0.24920256  0.55635881  1
  Br  Br40  1  0.31027353  0.99104352  0.68692813  1
  Br  Br41  1  0.80845673  0.98791022  0.81337000  1
  Br  Br42  1  0.51787701  0.74921018  0.05624402  1
  Br  Br43  1  0.69150825  0.48775608  0.31338508  1
  Br  Br44  1  0.18969946  0.49104362  0.18681968  1
  Br  Br45  1  0.01827437  0.75080004  0.44365312  1
  Br  Br46  1  0.30849439  0.51224610  0.68662784  1
  Br  Br47  1  0.81030251  0.50895972  0.81319140  1
