# generated using pymatgen
data_ZrBH12C2(I3N)2
_symmetry_space_group_name_H-M   'P 1'
_cell_length_a   7.32605678
_cell_length_b   13.85069931
_cell_length_c   8.82682687
_cell_angle_alpha   87.14982070
_cell_angle_beta   83.24909555
_cell_angle_gamma   83.40013837
_symmetry_Int_Tables_number   1
_chemical_formula_structural   ZrBH12C2(I3N)2
_chemical_formula_sum   'Zr2 B2 H24 C4 I12 N4'
_cell_volume   882.96707839
_cell_formula_units_Z   2
loop_
 _symmetry_equiv_pos_site_id
 _symmetry_equiv_pos_as_xyz
  1  'x, y, z'
loop_
 _atom_site_type_symbol
 _atom_site_label
 _atom_site_symmetry_multiplicity
 _atom_site_fract_x
 _atom_site_fract_y
 _atom_site_fract_z
 _atom_site_occupancy
  C  C0  1  0.30749482  0.25451244  0.45226065  1
  C  C1  1  0.17065465  0.23096993  0.97424453  1
  C  C2  1  0.35940694  0.76423009  0.47314870  1
  C  C3  1  0.22998594  0.76715860  0.98804604  1
  N  N4  1  0.33501766  0.31122249  0.58484247  1
  N  N5  1  0.08891959  0.29334497  0.85449342  1
  N  N6  1  0.38143583  0.68949005  0.35735354  1
  N  N7  1  0.15657897  0.75223887  0.15012861  1
  H  H8  1  0.41881863  0.26485490  0.36055257  1
  H  H9  1  0.31167517  0.17735270  0.48756629  1
  H  H10  1  0.17349413  0.28027342  0.41310230  1
  H  H11  1  0.46771093  0.29279325  0.61490067  1
  H  H12  1  0.32157868  0.38531455  0.55976049  1
  H  H13  1  0.23901382  0.30151328  0.68658129  1
  H  H14  1  0.30415935  0.19083816  0.93199898  1
  H  H15  1  0.07699185  0.17874621  0.02612003  1
  H  H16  1  0.20108934  0.27508856  0.06824841  1
  H  H17  1  0.49142321  0.38867069  0.83371675  1
  H  H18  1  0.54373248  0.34166035  0.85926599  1
  H  H19  1  0.00668591  0.25622375  0.79661096  1
  H  H20  1  0.21165859  0.78723510  0.50375870  1
  H  H21  1  0.42167623  0.73867247  0.57735758  1
  H  H22  1  0.42476275  0.82799075  0.42458181  1
  H  H23  1  0.05124058  0.94731269  0.45102311  1
  H  H24  1  0.33248205  0.62658313  0.40346899  1
  H  H25  1  0.51849417  0.67178226  0.31988115  1
  H  H26  1  0.11555322  0.78539777  0.91808843  1
  H  H27  1  0.31766288  0.82658611  0.97858517  1
  H  H28  1  0.31148829  0.69974167  0.94944570  1
  H  H29  1  0.08212875  0.81501483  0.19129805  1
  H  H30  1  0.06779299  0.69909720  0.15990940  1
  H  H31  1  0.26660064  0.72572869  0.23133665  1
  B  B32  1  0.59994563  0.98603821  0.13563752  1
  B  B33  1  0.90914803  0.50271990  0.73522167  1
  Zr  Zr34  1  0.89324069  0.00875719  0.60032405  1
  Zr  Zr35  1  0.99258238  0.42355537  0.96079557  1
  I  I36  1  0.67924115  0.07730095  0.92111107  1
  I  I37  1  0.29762416  0.00799818  0.20397069  1
  I  I38  1  0.73496484  0.06621771  0.30965565  1
  I  I39  1  0.81507260  0.21894069  0.58730398  1
  I  I40  1  0.22795004  0.00477203  0.71430733  1
  I  I41  1  0.76842419  0.83076274  0.64294177  1
  I  I42  1  0.70182320  0.83104565  0.11348222  1
  I  I43  1  0.73440574  0.34271677  0.16855904  1
  I  I44  1  0.22368912  0.48940128  0.16209652  1
  I  I45  1  0.78497231  0.50968430  0.52288705  1
  I  I46  1  0.20463634  0.55546337  0.71162368  1
  I  I47  1  0.72489426  0.59706402  0.92870136  1
