# generated using pymatgen
data_AgH12AuC2(Br3N)2
_symmetry_space_group_name_H-M   'P 1'
_cell_length_a   7.92991689
_cell_length_b   10.88779878
_cell_length_c   8.14665598
_cell_angle_alpha   91.90300851
_cell_angle_beta   90.02933683
_cell_angle_gamma   89.99787942
_symmetry_Int_Tables_number   1
_chemical_formula_structural   AgH12AuC2(Br3N)2
_chemical_formula_sum   'Ag2 H24 Au2 C4 Br12 N4'
_cell_volume   702.98887274
_cell_formula_units_Z   2
loop_
 _symmetry_equiv_pos_site_id
 _symmetry_equiv_pos_as_xyz
  1  'x, y, z'
loop_
 _atom_site_type_symbol
 _atom_site_label
 _atom_site_symmetry_multiplicity
 _atom_site_fract_x
 _atom_site_fract_y
 _atom_site_fract_z
 _atom_site_occupancy
  C  C0  1  0.41766549  0.25079895  0.41174979  1
  C  C1  1  0.91846559  0.24924754  0.08856343  1
  C  C2  1  0.58233264  0.74920555  0.58826153  1
  C  C3  1  0.08153726  0.75075674  0.91144825  1
  N  N4  1  0.55978284  0.25505310  0.53031337  1
  N  N5  1  0.06013490  0.24481113  0.96963421  1
  N  N6  1  0.44021522  0.74495188  0.46969766  1
  N  N7  1  0.93986922  0.75518822  0.03037894  1
  H  H8  1  0.46921303  0.24845812  0.28715090  1
  H  H9  1  0.34305866  0.16834730  0.43113072  1
  H  H10  1  0.34092971  0.33314048  0.43226326  1
  H  H11  1  0.63457760  0.17742288  0.51445386  1
  H  H12  1  0.63548289  0.33103641  0.50812818  1
  H  H13  1  0.52002753  0.26088479  0.65196496  1
  H  H14  1  0.97049689  0.25162891  0.21301982  1
  H  H15  1  0.84155945  0.16693030  0.06835795  1
  H  H16  1  0.84388041  0.33171860  0.06928981  1
  H  H17  1  0.13581147  0.16880240  0.99169089  1
  H  H18  1  0.13509121  0.32241812  0.98525656  1
  H  H19  1  0.01994954  0.23896771  0.84808552  1
  H  H20  1  0.53078542  0.75154606  0.71286034  1
  H  H21  1  0.65906776  0.66686335  0.56774736  1
  H  H22  1  0.65694026  0.83165666  0.56888077  1
  H  H23  1  0.36542117  0.82258303  0.48555789  1
  H  H24  1  0.36451440  0.66896944  0.49188332  1
  H  H25  1  0.47997001  0.73912037  0.34804667  1
  H  H26  1  0.02950438  0.74837588  0.78699242  1
  H  H27  1  0.15843996  0.83307554  0.93165483  1
  H  H28  1  0.15612635  0.66828711  0.93071889  1
  H  H29  1  0.86418932  0.83119564  0.00832494  1
  H  H30  1  0.86491610  0.67757974  0.01475551  1
  H  H31  1  0.98005580  0.76103117  0.15192740  1
  Ag  Ag32  1  0.50000153  1.00000071  0.00000729  1
  Ag  Ag33  1  0.00000060  0.50000203  0.50000739  1
  Au  Au34  1  0.99999977  0.00000197  0.50000707  1
  Au  Au35  1  0.50000086  0.50000142  0.00000615  1
  Br  Br36  1  0.48610998  0.27083311  0.94578557  1
  Br  Br37  1  0.23292427  0.00929835  0.16152096  1
  Br  Br38  1  0.73367954  0.00403131  0.33322830  1
  Br  Br39  1  0.98576590  0.22913708  0.55442023  1
  Br  Br40  1  0.26632056  0.99597323  0.66678531  1
  Br  Br41  1  0.76707921  0.99070264  0.83849448  1
  Br  Br42  1  0.51389274  0.72916957  0.05422681  1
  Br  Br43  1  0.73277270  0.49042670  0.33852265  1
  Br  Br44  1  0.23374378  0.49599571  0.16660529  1
  Br  Br45  1  0.01423274  0.77086673  0.44559398  1
  Br  Br46  1  0.26723004  0.50957695  0.66148957  1
  Br  Br47  1  0.76625703  0.50400765  0.83340559  1
