# generated using pymatgen
data_AgH12IrC2(Br3N)2
_symmetry_space_group_name_H-M   'P 1'
_cell_length_a   7.54270265
_cell_length_b   11.31155009
_cell_length_c   7.49576222
_cell_angle_alpha   93.90635788
_cell_angle_beta   90.00713090
_cell_angle_gamma   89.96748205
_symmetry_Int_Tables_number   1
_chemical_formula_structural   AgH12IrC2(Br3N)2
_chemical_formula_sum   'Ag2 H24 Ir2 C4 Br12 N4'
_cell_volume   638.04995312
_cell_formula_units_Z   2
loop_
 _symmetry_equiv_pos_site_id
 _symmetry_equiv_pos_as_xyz
  1  'x, y, z'
loop_
 _atom_site_type_symbol
 _atom_site_label
 _atom_site_symmetry_multiplicity
 _atom_site_fract_x
 _atom_site_fract_y
 _atom_site_fract_z
 _atom_site_occupancy
  C  C0  1  0.39853098  0.25191204  0.40603940  1
  C  C1  1  0.89975397  0.24824238  0.09447054  1
  C  C2  1  0.60146603  0.74809224  0.59397251  1
  C  C3  1  0.10025144  0.75176196  0.90554173  1
  N  N4  1  0.55541533  0.25497823  0.52304200  1
  N  N5  1  0.05601130  0.24498616  0.97665559  1
  N  N6  1  0.44458058  0.74502545  0.47697136  1
  N  N7  1  0.94399367  0.75501619  0.02335633  1
  H  H8  1  0.44255728  0.24659323  0.26710202  1
  H  H9  1  0.31968659  0.17453946  0.43257657  1
  H  H10  1  0.32197164  0.33278206  0.43450148  1
  H  H11  1  0.63179907  0.17948504  0.49708355  1
  H  H12  1  0.63349532  0.32752858  0.50068625  1
  H  H13  1  0.52148101  0.26031900  0.65882819  1
  H  H14  1  0.94452877  0.25369983  0.23316180  1
  H  H15  1  0.82312928  0.16736298  0.06664364  1
  H  H16  1  0.82066938  0.32560560  0.06816002  1
  H  H17  1  0.13423264  0.17237536  0.99868004  1
  H  H18  1  0.13249427  0.32041632  0.00219994  1
  H  H19  1  0.02138599  0.23961869  0.84105341  1
  H  H20  1  0.55744136  0.75341127  0.73291043  1
  H  H21  1  0.67802577  0.66722250  0.56550990  1
  H  H22  1  0.68030946  0.82546500  0.56743388  1
  H  H23  1  0.36819670  0.82051845  0.50293014  1
  H  H24  1  0.36650133  0.67247480  0.49932830  1
  H  H25  1  0.47851397  0.73968438  0.34118491  1
  H  H26  1  0.05547604  0.74630712  0.76685041  1
  H  H27  1  0.17687390  0.83264242  0.93337197  1
  H  H28  1  0.17933768  0.67439965  0.93184842  1
  H  H29  1  0.86576998  0.82762378  0.00133397  1
  H  H30  1  0.86751357  0.67958283  0.99781035  1
  H  H31  1  0.97861915  0.76038162  0.15895879  1
  Ag  Ag32  1  0.50000634  0.00000410  1.00000080  1
  Ag  Ag33  1  0.99999991  0.50000553  0.50000494  1
  Ir  Ir34  1  0.99999768  0.00000092  0.50000629  1
  Ir  Ir35  1  0.50000259  0.50000135  0.00000646  1
  Br  Br36  1  0.47956369  0.27732717  0.94653752  1
  Br  Br37  1  0.17113186  0.00718732  0.20605203  1
  Br  Br38  1  0.70817089  0.99591872  0.32521537  1
  Br  Br39  1  0.97864019  0.22263002  0.55367342  1
  Br  Br40  1  0.29182454  0.00408418  0.67479743  1
  Br  Br41  1  0.82886756  0.99281381  0.79396383  1
  Br  Br42  1  0.52044161  0.72267480  0.05347628  1
  Br  Br43  1  0.67102176  0.49270471  0.29400109  1
  Br  Br44  1  0.20811417  0.50404607  0.17460460  1
  Br  Br45  1  0.02135520  0.77737097  0.44633938  1
  Br  Br46  1  0.32898194  0.50729724  0.70601271  1
  Br  Br47  1  0.79189036  0.49595673  0.82540660  1
