# generated using pymatgen
data_AgSbH12C2(Br3N)2
_symmetry_space_group_name_H-M   'P 1'
_cell_length_a   7.94734009
_cell_length_b   11.33513985
_cell_length_c   7.77863959
_cell_angle_alpha   91.36508265
_cell_angle_beta   90.00880395
_cell_angle_gamma   89.98025720
_symmetry_Int_Tables_number   1
_chemical_formula_structural   AgSbH12C2(Br3N)2
_chemical_formula_sum   'Ag2 Sb2 H24 C4 Br12 N4'
_cell_volume   700.53369142
_cell_formula_units_Z   2
loop_
 _symmetry_equiv_pos_site_id
 _symmetry_equiv_pos_as_xyz
  1  'x, y, z'
loop_
 _atom_site_type_symbol
 _atom_site_label
 _atom_site_symmetry_multiplicity
 _atom_site_fract_x
 _atom_site_fract_y
 _atom_site_fract_z
 _atom_site_occupancy
  C  C0  1  0.40153639  0.25131580  0.41472780  1
  C  C1  1  0.90250195  0.24880203  0.08588232  1
  C  C2  1  0.59846046  0.74868850  0.58528423  1
  C  C3  1  0.09750311  0.75120161  0.91412730  1
  N  N4  1  0.55327853  0.25226047  0.52519713  1
  N  N5  1  0.05374015  0.24772105  0.97475792  1
  N  N6  1  0.44671622  0.74774373  0.47481787  1
  N  N7  1  0.94626671  0.75227964  0.02525378  1
  H  H8  1  0.44126971  0.24904886  0.28014318  1
  H  H9  1  0.32835225  0.17259460  0.44175899  1
  H  H10  1  0.32808154  0.33080172  0.44271439  1
  H  H11  1  0.62561919  0.17775099  0.49836588  1
  H  H12  1  0.62634904  0.32573577  0.50049883  1
  H  H13  1  0.52323090  0.25341033  0.65583633  1
  H  H14  1  0.94290232  0.25116082  0.22030107  1
  H  H15  1  0.82890503  0.16934071  0.05841475  1
  H  H16  1  0.82921681  0.32755084  0.05910071  1
  H  H17  1  0.12688416  0.17414377  0.99921466  1
  H  H18  1  0.12620076  0.32212792  0.00119908  1
  H  H19  1  0.02310962  0.24649949  0.84423425  1
  H  H20  1  0.55872980  0.75095533  0.71986976  1
  H  H21  1  0.67191505  0.66920261  0.55729615  1
  H  H22  1  0.67164390  0.82740979  0.55825164  1
  H  H23  1  0.37437595  0.82225317  0.50165058  1
  H  H24  1  0.37364644  0.67426827  0.49951746  1
  H  H25  1  0.47676186  0.74659404  0.34417826  1
  H  H26  1  0.05710198  0.74884485  0.77970975  1
  H  H27  1  0.17109997  0.83066280  0.94159759  1
  H  H28  1  0.17078992  0.67245232  0.94090553  1
  H  H29  1  0.87312025  0.82585628  0.00079871  1
  H  H30  1  0.87380721  0.67787195  0.99881116  1
  H  H31  1  0.97689753  0.75350045  0.15577674  1
  Ag  Ag32  1  0.50000191  0.00000129  0.00000440  1
  Ag  Ag33  1  0.00000115  0.50000159  0.50000636  1
  Sb  Sb34  1  0.99999955  0.00000197  0.50000570  1
  Sb  Sb35  1  0.50000103  0.50000202  0.00000707  1
  Br  Br36  1  0.47994524  0.25240429  0.94655804  1
  Br  Br37  1  0.18928076  0.01072955  0.19131131  1
  Br  Br38  1  0.69449310  0.00649123  0.31326315  1
  Br  Br39  1  0.97931992  0.24758100  0.55376087  1
  Br  Br40  1  0.30550726  0.99351446  0.68675062  1
  Br  Br41  1  0.81072235  0.98927203  0.80870224  1
  Br  Br42  1  0.52005924  0.74759973  0.05345767  1
  Br  Br43  1  0.68923507  0.48914301  0.30876097  1
  Br  Br44  1  0.19450717  0.49354201  0.18660458  1
  Br  Br45  1  0.02067674  0.75242258  0.44625179  1
  Br  Br46  1  0.31076566  0.51085877  0.69125107  1
  Br  Br47  1  0.80549283  0.50646225  0.81340695  1
