# generated using pymatgen
data_InAgH12C2(Br3N)2
_symmetry_space_group_name_H-M   'P 1'
_cell_length_a   7.85071749
_cell_length_b   11.18703968
_cell_length_c   7.71592963
_cell_angle_alpha   91.77643759
_cell_angle_beta   90.02130194
_cell_angle_gamma   89.98185179
_symmetry_Int_Tables_number   1
_chemical_formula_structural   InAgH12C2(Br3N)2
_chemical_formula_sum   'In2 Ag2 H24 C4 Br12 N4'
_cell_volume   677.33569142
_cell_formula_units_Z   2
loop_
 _symmetry_equiv_pos_site_id
 _symmetry_equiv_pos_as_xyz
  1  'x, y, z'
loop_
 _atom_site_type_symbol
 _atom_site_label
 _atom_site_symmetry_multiplicity
 _atom_site_fract_x
 _atom_site_fract_y
 _atom_site_fract_z
 _atom_site_occupancy
  C  C0  1  0.40126322  0.25160537  0.41380041  1
  C  C1  1  0.90215534  0.24849049  0.08669910  1
  C  C2  1  0.59873464  0.74839918  0.58621087  1
  C  C3  1  0.09784850  0.75151327  0.91331343  1
  N  N4  1  0.55385290  0.25276083  0.52606765  1
  N  N5  1  0.05426150  0.24719830  0.97383847  1
  N  N6  1  0.44614417  0.74724393  0.47394392  1
  N  N7  1  0.94574420  0.75280132  0.02617652  1
  H  H8  1  0.44219447  0.24927163  0.27841087  1
  H  H9  1  0.32684827  0.17206031  0.44017404  1
  H  H10  1  0.32685165  0.33220462  0.44198907  1
  H  H11  1  0.62710977  0.17709945  0.49962627  1
  H  H12  1  0.62814935  0.32689920  0.50157344  1
  H  H13  1  0.52273227  0.25484993  0.65764434  1
  H  H14  1  0.94372883  0.25087903  0.22191206  1
  H  H15  1  0.82761046  0.16792760  0.05892671  1
  H  H16  1  0.82763139  0.32807851  0.06055999  1
  H  H17  1  0.12862705  0.17299742  0.99810153  1
  H  H18  1  0.12762871  0.32280035  0.99997490  1
  H  H19  1  0.02257608  0.24509070  0.84239120  1
  H  H20  1  0.55780350  0.75073483  0.72160044  1
  H  H21  1  0.67314463  0.66779906  0.55802391  1
  H  H22  1  0.67315067  0.82794328  0.55983532  1
  H  H23  1  0.37288833  0.82290591  0.50038469  1
  H  H24  1  0.37184722  0.67310601  0.49843908  1
  H  H25  1  0.47726500  0.74515399  0.34236774  1
  H  H26  1  0.05627281  0.74912627  0.77810120  1
  H  H27  1  0.17239145  0.83207679  0.94108739  1
  H  H28  1  0.17237519  0.67192584  0.93944838  1
  H  H29  1  0.87137493  0.82700075  0.00191604  1
  H  H30  1  0.87237985  0.67719794  0.00003947  1
  H  H31  1  0.97743127  0.75490854  0.15762340  1
  Ag  Ag32  1  0.50000113  0.00000281  0.00000785  1
  Ag  Ag33  1  0.99999781  0.50000099  0.49999871  1
  In  In34  1  0.00000001  0.00000176  0.50000784  1
  In  In35  1  0.50000122  0.50000236  0.00000309  1
  Br  Br36  1  0.48056368  0.25678960  0.94854333  1
  Br  Br37  1  0.18528107  0.00985065  0.19825836  1
  Br  Br38  1  0.70240661  0.00365754  0.31559926  1
  Br  Br39  1  0.98000515  0.24320567  0.55169833  1
  Br  Br40  1  0.29759399  0.99634716  0.68441525  1
  Br  Br41  1  0.81472064  0.99015024  0.80175714  1
  Br  Br42  1  0.51944034  0.74321433  0.05146889  1
  Br  Br43  1  0.68532166  0.49002509  0.30191076  1
  Br  Br44  1  0.20251373  0.49637840  0.18417957  1
  Br  Br45  1  0.01999336  0.75679747  0.44831712  1
  Br  Br46  1  0.31467720  0.50997798  0.69809963  1
  Br  Br47  1  0.79748849  0.50362559  0.81582959  1
