# generated using pymatgen
data_CdH12PbC2(Br3N)2
_symmetry_space_group_name_H-M   'P 1'
_cell_length_a   7.99965300
_cell_length_b   11.50821878
_cell_length_c   7.82550971
_cell_angle_alpha   89.22704735
_cell_angle_beta   90.00896611
_cell_angle_gamma   90.00702460
_symmetry_Int_Tables_number   1
_chemical_formula_structural   CdH12PbC2(Br3N)2
_chemical_formula_sum   'Cd2 H24 Pb2 C4 Br12 N4'
_cell_volume   720.36460155
_cell_formula_units_Z   2
loop_
 _symmetry_equiv_pos_site_id
 _symmetry_equiv_pos_as_xyz
  1  'x, y, z'
loop_
 _atom_site_type_symbol
 _atom_site_label
 _atom_site_symmetry_multiplicity
 _atom_site_fract_x
 _atom_site_fract_y
 _atom_site_fract_z
 _atom_site_occupancy
  C  C0  1  0.39276714  0.25026959  0.41205862  1
  C  C1  1  0.89390411  0.24990502  0.08901942  1
  C  C2  1  0.60722946  0.74973483  0.58795472  1
  C  C3  1  0.10610213  0.75009617  0.91099384  1
  N  N4  1  0.54230129  0.24966753  0.52346507  1
  N  N5  1  0.04274155  0.25035564  0.97669923  1
  N  N6  1  0.45769542  0.75033708  0.47654810  1
  N  N7  1  0.95726582  0.74964212  0.02331566  1
  H  H8  1  0.43347196  0.25019952  0.27861799  1
  H  H9  1  0.32008750  0.17195031  0.43921621  1
  H  H10  1  0.31907963  0.32787168  0.43789239  1
  H  H11  1  0.61418113  0.17678681  0.49808492  1
  H  H12  1  0.61502221  0.32288059  0.49842157  1
  H  H13  1  0.51128745  0.24819891  0.65318488  1
  H  H14  1  0.93543708  0.25001023  0.22217293  1
  H  H15  1  0.81988900  0.17233114  0.06372494  1
  H  H16  1  0.82120138  0.32827908  0.06226794  1
  H  H17  1  0.11547784  0.17709875  0.00144525  1
  H  H18  1  0.11489170  0.32320480  0.00163928  1
  H  H19  1  0.01102597  0.25179297  0.84718734  1
  H  H20  1  0.56652618  0.74980676  0.72139499  1
  H  H21  1  0.68091563  0.67213147  0.56212150  1
  H  H22  1  0.67991122  0.82805296  0.56079466  1
  H  H23  1  0.38581542  0.82321812  0.50192959  1
  H  H24  1  0.38497393  0.67712398  0.50159214  1
  H  H25  1  0.48870847  0.75180615  0.34682929  1
  H  H26  1  0.06456777  0.74999304  0.77784064  1
  H  H27  1  0.18011690  0.82766983  0.93629113  1
  H  H28  1  0.17880550  0.67172197  0.93774116  1
  H  H29  1  0.88452652  0.82289785  0.99857216  1
  H  H30  1  0.88511804  0.67679199  0.99837543  1
  H  H31  1  0.98898261  0.74820470  0.15282744  1
  Cd  Cd32  1  0.50000252  0.00000561  0.00000888  1
  Cd  Cd33  1  0.99999355  0.50000158  0.49999484  1
  Pb  Pb34  1  0.00000123  0.00000289  0.50000994  1
  Pb  Pb35  1  0.49999911  0.50000637  0.99999535  1
  Br  Br36  1  0.47172002  0.24253827  0.94173175  1
  Br  Br37  1  0.19398547  0.00937524  0.16952463  1
  Br  Br38  1  0.67114281  0.01402992  0.31242180  1
  Br  Br39  1  0.97110993  0.25746563  0.55882126  1
  Br  Br40  1  0.32886275  0.98597750  0.68759575  1
  Br  Br41  1  0.80602075  0.99062622  0.83049387  1
  Br  Br42  1  0.52828598  0.75747134  0.05828387  1
  Br  Br43  1  0.69400182  0.49045188  0.33040518  1
  Br  Br44  1  0.17127055  0.48611070  0.18763699  1
  Br  Br45  1  0.02888584  0.74253906  0.44119310  1
  Br  Br46  1  0.30598686  0.50955148  0.66959415  1
  Br  Br47  1  0.82872654  0.51389300  0.81236482  1
