# generated using pymatgen
data_CdHgH12C2(Br3N)2
_symmetry_space_group_name_H-M   'P 1'
_cell_length_a   7.19334175
_cell_length_b   12.27186471
_cell_length_c   8.19446775
_cell_angle_alpha   89.91248480
_cell_angle_beta   90.00439148
_cell_angle_gamma   89.99843832
_symmetry_Int_Tables_number   1
_chemical_formula_structural   CdHgH12C2(Br3N)2
_chemical_formula_sum   'Cd2 Hg2 H24 C4 Br12 N4'
_cell_volume   723.37166741
_cell_formula_units_Z   2
loop_
 _symmetry_equiv_pos_site_id
 _symmetry_equiv_pos_as_xyz
  1  'x, y, z'
loop_
 _atom_site_type_symbol
 _atom_site_label
 _atom_site_symmetry_multiplicity
 _atom_site_fract_x
 _atom_site_fract_y
 _atom_site_fract_z
 _atom_site_occupancy
  C  C0  1  0.40711724  0.24643939  0.35945177  1
  C  C1  1  0.91094233  0.24524080  0.13925841  1
  C  C2  1  0.58904252  0.74522571  0.63920371  1
  C  C3  1  0.09290388  0.74644715  0.85940385  1
  N  N4  1  0.51528505  0.26794702  0.50954052  1
  N  N5  1  0.02116150  0.26251957  0.98893498  1
  N  N6  1  0.47878687  0.76262007  0.48891821  1
  N  N7  1  0.98476056  0.76785701  0.00952447  1
  H  H8  1  0.50131662  0.24725197  0.25461943  1
  H  H9  1  0.33957308  0.16695530  0.36984234  1
  H  H10  1  0.30411426  0.31143811  0.34512382  1
  H  H11  1  0.62919983  0.21657344  0.52123504  1
  H  H12  1  0.56756603  0.34717087  0.50443891  1
  H  H13  1  0.43834857  0.25918708  0.61621474  1
  H  H14  1  0.00425835  0.24635318  0.24466536  1
  H  H15  1  0.84076877  0.16646654  0.13144279  1
  H  H16  1  0.81028060  0.31173055  0.15042288  1
  H  H17  1  0.13267965  0.20907235  0.98103157  1
  H  H18  1  0.07599411  0.34093320  0.98994870  1
  H  H19  1  0.94481744  0.25260476  0.88192170  1
  H  H20  1  0.49579136  0.74642460  0.74464351  1
  H  H21  1  0.65897153  0.66636754  0.63135274  1
  H  H22  1  0.68991241  0.81159631  0.65034502  1
  H  H23  1  0.42420622  0.84110051  0.48996073  1
  H  H24  1  0.36708799  0.70931244  0.48102762  1
  H  H25  1  0.55504290  0.75263212  0.38187726  1
  H  H26  1  0.99863093  0.74716260  0.75460573  1
  H  H27  1  0.19572082  0.81153270  0.84502737  1
  H  H28  1  0.16065591  0.66701860  0.86978022  1
  H  H29  1  0.93228594  0.84704444  0.00443637  1
  H  H30  1  0.87100568  0.71638654  0.02125449  1
  H  H31  1  0.06179279  0.75917489  0.11617481  1
  Cd  Cd32  1  0.54829488  0.95195558  0.07546227  1
  Cd  Cd33  1  0.95170206  0.45196744  0.57547789  1
  Hg  Hg34  1  0.04393932  0.95195845  0.43871264  1
  Hg  Hg35  1  0.45604816  0.45194325  0.93869678  1
  Br  Br36  1  0.48381165  0.23678501  0.90590631  1
  Br  Br37  1  0.20466832  0.01394169  0.12933230  1
  Br  Br38  1  0.69986681  0.01466895  0.36874852  1
  Br  Br39  1  0.97533729  0.23939211  0.59282279  1
  Br  Br40  1  0.29861731  0.99791182  0.64556326  1
  Br  Br41  1  0.79092648  0.99552968  0.85580147  1
  Br  Br42  1  0.52462691  0.73938382  0.09281922  1
  Br  Br43  1  0.70908225  0.49559029  0.35579510  1
  Br  Br44  1  0.20138331  0.49785581  0.14554737  1
  Br  Br45  1  0.01623863  0.73679996  0.40590365  1
  Br  Br46  1  0.29533231  0.51395311  0.62932284  1
  Br  Br47  1  0.80012630  0.51465398  0.86875509  1
