# generated using pymatgen
data_CdH12PtC2(Br3N)2
_symmetry_space_group_name_H-M   'P 1'
_cell_length_a   7.73577714
_cell_length_b   11.83507360
_cell_length_c   7.58677574
_cell_angle_alpha   87.30636388
_cell_angle_beta   90.00285217
_cell_angle_gamma   90.02700341
_symmetry_Int_Tables_number   1
_chemical_formula_structural   CdH12PtC2(Br3N)2
_chemical_formula_sum   'Cd2 H24 Pt2 C4 Br12 N4'
_cell_volume   693.82827524
_cell_formula_units_Z   2
loop_
 _symmetry_equiv_pos_site_id
 _symmetry_equiv_pos_as_xyz
  1  'x, y, z'
loop_
 _atom_site_type_symbol
 _atom_site_label
 _atom_site_symmetry_multiplicity
 _atom_site_fract_x
 _atom_site_fract_y
 _atom_site_fract_z
 _atom_site_occupancy
  C  C0  1  0.40723220  0.25398757  0.41475545  1
  C  C1  1  0.90807592  0.24612370  0.08558184  1
  C  C2  1  0.59276559  0.74601662  0.58525447  1
  C  C3  1  0.09192639  0.75388129  0.91443104  1
  N  N4  1  0.56288170  0.24694512  0.52799888  1
  N  N5  1  0.06332745  0.25301218  0.97176032  1
  N  N6  1  0.43711594  0.75306095  0.47201120  1
  N  N7  1  0.93667696  0.74698607  0.02825502  1
  H  H8  1  0.44861569  0.25877593  0.27700248  1
  H  H9  1  0.32784058  0.17874302  0.44185263  1
  H  H10  1  0.33609132  0.33037184  0.44418565  1
  H  H11  1  0.63604285  0.17617387  0.49968279  1
  H  H12  1  0.63995643  0.31759832  0.50587511  1
  H  H13  1  0.53181102  0.24072499  0.66199274  1
  H  H14  1  0.94996219  0.24133499  0.22317633  1
  H  H15  1  0.83655184  0.16977824  0.05648091  1
  H  H16  1  0.82885333  0.32142033  0.05874037  1
  H  H17  1  0.14028409  0.18234071  0.99368265  1
  H  H18  1  0.13675924  0.32377535  0.99976853  1
  H  H19  1  0.03179121  0.25921195  0.83788509  1
  H  H20  1  0.55138236  0.74122788  0.72300767  1
  H  H21  1  0.66390480  0.66963171  0.55582316  1
  H  H22  1  0.67215873  0.82126028  0.55815820  1
  H  H23  1  0.36395645  0.82383327  0.50032782  1
  H  H24  1  0.36003952  0.68240909  0.49413397  1
  H  H25  1  0.46818701  0.75928139  0.33801750  1
  H  H26  1  0.05003808  0.75867210  0.77683724  1
  H  H27  1  0.16344692  0.83022755  0.94353515  1
  H  H28  1  0.17115354  0.67858598  0.94126708  1
  H  H29  1  0.85971523  0.81765577  0.00633773  1
  H  H30  1  0.86324863  0.67622178  0.00024473  1
  H  H31  1  0.96821516  0.74078479  0.16212960  1
  Cd  Cd32  1  0.50001902  0.00000186  0.99999744  1
  Cd  Cd33  1  0.00001406  0.50000091  0.50001924  1
  Pt  Pt34  1  0.99999771  0.00000130  0.50000568  1
  Pt  Pt35  1  0.49999703  0.50000163  0.00000628  1
  Br  Br36  1  0.48251118  0.21204810  0.95232527  1
  Br  Br37  1  0.15128067  0.99753787  0.21213162  1
  Br  Br38  1  0.71732510  0.01386149  0.34748897  1
  Br  Br39  1  0.98188698  0.28799222  0.54786637  1
  Br  Br40  1  0.28267003  0.98614284  0.65252356  1
  Br  Br41  1  0.84871942  0.00246381  0.78788567  1
  Br  Br42  1  0.51749049  0.78795525  0.04768531  1
  Br  Br43  1  0.65131867  0.50235507  0.28787167  1
  Br  Br44  1  0.21730977  0.48621643  0.15249230  1
  Br  Br45  1  0.01811012  0.71200928  0.45214948  1
  Br  Br46  1  0.34868020  0.49764848  0.71213510  1
  Br  Br47  1  0.78268494  0.51378711  0.84751934  1
