# generated using pymatgen
data_HfCdH12C2(Br3N)2
_symmetry_space_group_name_H-M   'P 1'
_cell_length_a   7.96408012
_cell_length_b   11.83939681
_cell_length_c   8.27804158
_cell_angle_alpha   99.70159149
_cell_angle_beta   90.00064432
_cell_angle_gamma   89.99324034
_symmetry_Int_Tables_number   1
_chemical_formula_structural   HfCdH12C2(Br3N)2
_chemical_formula_sum   'Hf2 Cd2 H24 C4 Br12 N4'
_cell_volume   769.37313991
_cell_formula_units_Z   2
loop_
 _symmetry_equiv_pos_site_id
 _symmetry_equiv_pos_as_xyz
  1  'x, y, z'
loop_
 _atom_site_type_symbol
 _atom_site_label
 _atom_site_symmetry_multiplicity
 _atom_site_fract_x
 _atom_site_fract_y
 _atom_site_fract_z
 _atom_site_occupancy
  C  C0  1  0.44055443  0.24728542  0.40740297  1
  C  C1  1  0.94050770  0.25257256  0.09264765  1
  C  C2  1  0.55967396  0.75232807  0.59260928  1
  C  C3  1  0.05931407  0.74742762  0.90739907  1
  N  N4  1  0.56169835  0.25322134  0.54531410  1
  N  N5  1  0.06139059  0.24714686  0.95460840  1
  N  N6  1  0.43880796  0.74707778  0.45457942  1
  N  N7  1  0.93846957  0.75317298  0.04552836  1
  H  H8  1  0.51133911  0.24188250  0.29302685  1
  H  H9  1  0.36303399  0.17068564  0.40471959  1
  H  H10  1  0.36294163  0.32469916  0.42708806  1
  H  H11  1  0.63769162  0.18069119  0.52814124  1
  H  H12  1  0.63882639  0.32415249  0.55434832  1
  H  H13  1  0.50315196  0.25776823  0.65894217  1
  H  H14  1  0.01150837  0.25825753  0.20694276  1
  H  H15  1  0.86358090  0.17485724  0.07305347  1
  H  H16  1  0.86228000  0.32887198  0.09544362  1
  H  H17  1  0.13926917  0.17657869  0.94553378  1
  H  H18  1  0.13664942  0.32002903  0.97173095  1
  H  H19  1  0.00266736  0.24230831  0.84102749  1
  H  H20  1  0.48864933  0.75744827  0.70680250  1
  H  H21  1  0.63700498  0.67478169  0.57252641  1
  H  H22  1  0.63750958  0.82884300  0.59597013  1
  H  H23  1  0.36328705  0.81986353  0.47208080  1
  H  H24  1  0.36121794  0.67637007  0.44506333  1
  H  H25  1  0.49755421  0.74265673  0.34108351  1
  H  H26  1  0.98827314  0.74261260  0.79326138  1
  H  H27  1  0.13730512  0.82464784  0.92743862  1
  H  H28  1  0.13649220  0.67058674  0.90396856  1
  H  H29  1  0.86161743  0.82428529  0.05519574  1
  H  H30  1  0.86221770  0.68078263  0.02810081  1
  H  H31  1  0.99726786  0.75727722  0.15895534  1
  Cd  Cd32  1  0.50005596  0.00009500  0.00021639  1
  Cd  Cd33  1  0.99945455  0.49969350  0.49968835  1
  Hf  Hf34  1  0.00007702  0.99983424  0.50009773  1
  Hf  Hf35  1  0.49974834  0.50001509  0.99983487  1
  Br  Br36  1  0.48620016  0.27530572  0.94658392  1
  Br  Br37  1  0.13076935  0.00439881  0.21339985  1
  Br  Br38  1  0.70094775  0.98856784  0.36864586  1
  Br  Br39  1  0.98647547  0.22453903  0.55325424  1
  Br  Br40  1  0.29918828  0.01111074  0.63163302  1
  Br  Br41  1  0.86930556  0.99549182  0.78681694  1
  Br  Br42  1  0.51350053  0.72470638  0.05310308  1
  Br  Br43  1  0.63032951  0.49540982  0.28657358  1
  Br  Br44  1  0.20063469  0.51135270  0.13141009  1
  Br  Br45  1  0.01385062  0.77513577  0.44690059  1
  Br  Br46  1  0.36886432  0.50444348  0.71317951  1
  Br  Br47  1  0.79886851  0.48880813  0.86842388  1
