# generated using pymatgen
data_BaCdH12C2(Br3N)2
_symmetry_space_group_name_H-M   'P 1'
_cell_length_a   8.19431332
_cell_length_b   11.73808527
_cell_length_c   7.93873446
_cell_angle_alpha   88.18815151
_cell_angle_beta   90.00121640
_cell_angle_gamma   90.00363534
_symmetry_Int_Tables_number   1
_chemical_formula_structural   BaCdH12C2(Br3N)2
_chemical_formula_sum   'Ba2 Cd2 H24 C4 Br12 N4'
_cell_volume   763.20976384
_cell_formula_units_Z   2
loop_
 _symmetry_equiv_pos_site_id
 _symmetry_equiv_pos_as_xyz
  1  'x, y, z'
loop_
 _atom_site_type_symbol
 _atom_site_label
 _atom_site_symmetry_multiplicity
 _atom_site_fract_x
 _atom_site_fract_y
 _atom_site_fract_z
 _atom_site_occupancy
  C  C0  1  0.40298435  0.25085028  0.41028243  1
  C  C1  1  0.90305265  0.24916247  0.08978280  1
  C  C2  1  0.59702071  0.74914916  0.58972725  1
  C  C3  1  0.09694295  0.75083504  0.91022778  1
  N  N4  1  0.54492801  0.24914300  0.52599513  1
  N  N5  1  0.04495981  0.25080838  0.97403002  1
  N  N6  1  0.45508477  0.75084191  0.47400460  1
  N  N7  1  0.95503981  0.74918840  0.02598580  1
  H  H8  1  0.44799641  0.25102846  0.28044668  1
  H  H9  1  0.33189884  0.17326889  0.43433620  1
  H  H10  1  0.32950115  0.32663359  0.43192658  1
  H  H11  1  0.61559007  0.17777663  0.50358310  1
  H  H12  1  0.61692577  0.32130667  0.50391664  1
  H  H13  1  0.51045760  0.24594540  0.65292604  1
  H  H14  1  0.94808635  0.24895868  0.21960000  1
  H  H15  1  0.82955125  0.17333017  0.06814144  1
  H  H16  1  0.83196274  0.32669740  0.06574206  1
  H  H17  1  0.11694661  0.17870895  0.99609853  1
  H  H18  1  0.11566156  0.32224245  0.99645082  1
  H  H19  1  0.01047723  0.25405569  0.84711855  1
  H  H20  1  0.55199993  0.74897459  0.71955898  1
  H  H21  1  0.67050826  0.67336480  0.56809799  1
  H  H22  1  0.66810546  0.82672935  0.56566773  1
  H  H23  1  0.38440900  0.82220475  0.49640468  1
  H  H24  1  0.38309599  0.67867557  0.49608803  1
  H  H25  1  0.48956076  0.75403841  0.34707609  1
  H  H26  1  0.05190407  0.75104805  0.78041217  1
  H  H27  1  0.17045102  0.82666371  0.93187319  1
  H  H28  1  0.16802749  0.67329676  0.93425613  1
  H  H29  1  0.88304527  0.82128184  0.00391620  1
  H  H30  1  0.88434556  0.67774824  0.00356969  1
  H  H31  1  0.98952667  0.74594667  0.15289586  1
  Cd  Cd32  1  0.50000207  0.00000685  0.99998883  1
  Cd  Cd33  1  0.99999477  0.50003254  0.50002901  1
  Ba  Ba34  1  0.00000598  0.00002915  0.49999642  1
  Ba  Ba35  1  0.49999265  0.50000450  0.00003194  1
  Br  Br36  1  0.47453152  0.23580996  0.93724023  1
  Br  Br37  1  0.19831337  0.01058367  0.15634070  1
  Br  Br38  1  0.65955817  0.01981632  0.31107678  1
  Br  Br39  1  0.97452918  0.26422378  0.56279806  1
  Br  Br40  1  0.34044901  0.98018325  0.68891009  1
  Br  Br41  1  0.80169017  0.98942142  0.84364475  1
  Br  Br42  1  0.52545807  0.76420347  0.06275452  1
  Br  Br43  1  0.69829844  0.48941240  0.34369043  1
  Br  Br44  1  0.15955687  0.48020664  0.18894879  1
  Br  Br45  1  0.02547741  0.73582459  0.43722200  1
  Br  Br46  1  0.30168664  0.51061287  0.65637117  1
  Br  Br47  1  0.84043129  0.51980255  0.81111369  1
