# generated using pymatgen
data_CdSnH12C2(Br3N)2
_symmetry_space_group_name_H-M   'P 1'
_cell_length_a   7.97707908
_cell_length_b   11.41304933
_cell_length_c   7.80834102
_cell_angle_alpha   89.30977168
_cell_angle_beta   90.00578364
_cell_angle_gamma   90.00865262
_symmetry_Int_Tables_number   1
_chemical_formula_structural   CdSnH12C2(Br3N)2
_chemical_formula_sum   'Cd2 Sn2 H24 C4 Br12 N4'
_cell_volume   710.84161159
_cell_formula_units_Z   2
loop_
 _symmetry_equiv_pos_site_id
 _symmetry_equiv_pos_as_xyz
  1  'x, y, z'
loop_
 _atom_site_type_symbol
 _atom_site_label
 _atom_site_symmetry_multiplicity
 _atom_site_fract_x
 _atom_site_fract_y
 _atom_site_fract_z
 _atom_site_occupancy
  C  C0  1  0.39498223  0.25005568  0.41260031  1
  C  C1  1  0.89598954  0.25006617  0.08826323  1
  C  C2  1  0.60501452  0.74994902  0.58741206  1
  C  C3  1  0.10401657  0.74993590  0.91174921  1
  N  N4  1  0.54521335  0.24951543  0.52389858  1
  N  N5  1  0.04564357  0.25048704  0.97620313  1
  N  N6  1  0.45478228  0.75049013  0.47611420  1
  N  N7  1  0.95436377  0.74951135  0.02381091  1
  H  H8  1  0.43553840  0.25019226  0.27883939  1
  H  H9  1  0.32215147  0.17115495  0.43995029  1
  H  H10  1  0.32138317  0.32833930  0.43888966  1
  H  H11  1  0.61754615  0.17612396  0.49832058  1
  H  H12  1  0.61786194  0.32336429  0.49867309  1
  H  H13  1  0.51432108  0.24814593  0.65382101  1
  H  H14  1  0.93727253  0.24995943  0.22179643  1
  H  H15  1  0.82210773  0.17182071  0.06245486  1
  H  H16  1  0.82315331  0.32902253  0.06128586  1
  H  H17  1  0.11827623  0.17659650  0.00113257  1
  H  H18  1  0.11820205  0.32383899  0.00135219  1
  H  H19  1  0.01410292  0.25182231  0.84641606  1
  H  H20  1  0.56445903  0.74981378  0.72117269  1
  H  H21  1  0.67861149  0.67166429  0.56112304  1
  H  H22  1  0.67784673  0.82884850  0.56006015  1
  H  H23  1  0.38245068  0.82388156  0.50169243  1
  H  H24  1  0.38213356  0.67664123  0.50133956  1
  H  H25  1  0.48567486  0.75185944  0.34619156  1
  H  H26  1  0.06273218  0.75004417  0.77821666  1
  H  H27  1  0.17789696  0.82818145  0.93755984  1
  H  H28  1  0.17685444  0.67097975  0.93872308  1
  H  H29  1  0.88172773  0.82340053  0.99888366  1
  H  H30  1  0.88180757  0.67615808  0.99866168  1
  H  H31  1  0.98590525  0.74817596  0.15359805  1
  Cd  Cd32  1  0.50000231  0.00000274  0.00000795  1
  Cd  Cd33  1  0.99999648  0.50000197  0.49999872  1
  Sn  Sn34  1  0.00000024  0.00000300  0.50000886  1
  Sn  Sn35  1  0.50000025  0.50000335  0.99999969  1
  Br  Br36  1  0.47416000  0.24445231  0.94406863  1
  Br  Br37  1  0.19451265  0.00804661  0.17619411  1
  Br  Br38  1  0.67810139  0.01179556  0.31125794  1
  Br  Br39  1  0.97352688  0.25555570  0.55640017  1
  Br  Br40  1  0.32190172  0.98821145  0.68875989  1
  Br  Br41  1  0.80549354  0.99195517  0.82382332  1
  Br  Br42  1  0.52584700  0.75555470  0.05594574  1
  Br  Br43  1  0.69454655  0.49184197  0.32372427  1
  Br  Br44  1  0.17822729  0.48830004  0.18879644  1
  Br  Br45  1  0.02646890  0.74444859  0.44361408  1
  Br  Br46  1  0.30544612  0.50816118  0.67628116  1
  Br  Br47  1  0.82176909  0.51170331  0.81120958  1
