# generated using pymatgen
data_YBH12C2(I3N)2
_symmetry_space_group_name_H-M   'P 1'
_cell_length_a   8.30720815
_cell_length_b   11.94783065
_cell_length_c   8.23994819
_cell_angle_alpha   90.65234783
_cell_angle_beta   90.00749694
_cell_angle_gamma   89.98862027
_symmetry_Int_Tables_number   1
_chemical_formula_structural   YBH12C2(I3N)2
_chemical_formula_sum   'Y2 B2 H24 C4 I12 N4'
_cell_volume   817.78750287
_cell_formula_units_Z   2
loop_
 _symmetry_equiv_pos_site_id
 _symmetry_equiv_pos_as_xyz
  1  'x, y, z'
loop_
 _atom_site_type_symbol
 _atom_site_label
 _atom_site_symmetry_multiplicity
 _atom_site_fract_x
 _atom_site_fract_y
 _atom_site_fract_z
 _atom_site_occupancy
  C  C0  1  0.39902350  0.25064148  0.41552625  1
  C  C1  1  0.90011145  0.24954673  0.08541345  1
  C  C2  1  0.60097578  0.74936654  0.58450031  1
  C  C3  1  0.09989730  0.75045264  0.91460286  1
  N  N4  1  0.54166867  0.25092688  0.52340599  1
  N  N5  1  0.04212798  0.24909885  0.97674158  1
  N  N6  1  0.45832945  0.74907429  0.47662283  1
  N  N7  1  0.95788080  0.75089926  0.02327481  1
  H  H8  1  0.43993719  0.24954553  0.28931184  1
  H  H9  1  0.32826278  0.17561361  0.43943214  1
  H  H10  1  0.32772987  0.32580401  0.44009025  1
  H  H11  1  0.61180180  0.18038134  0.50009705  1
  H  H12  1  0.61236381  0.32096340  0.50146302  1
  H  H13  1  0.51047205  0.25123293  0.64612756  1
  H  H14  1  0.94177942  0.25069819  0.21138277  1
  H  H15  1  0.82862547  0.17440550  0.06139026  1
  H  H16  1  0.82926202  0.32461331  0.06184236  1
  H  H17  1  0.11286724  0.17901572  0.99839855  1
  H  H18  1  0.11244762  0.31960190  -0.00037238  1
  H  H19  1  0.01026954  0.24876860  0.85419317  1
  H  H20  1  0.56006316  0.75046557  0.71071434  1
  H  H21  1  0.67226658  0.67420174  0.55994669  1
  H  H22  1  0.67173579  0.82439293  0.56058220  1
  H  H23  1  0.38819662  0.81961953  0.49992641  1
  H  H24  1  0.38763804  0.67903689  0.49858091  1
  H  H25  1  0.48952161  0.74876612  0.35389816  1
  H  H26  1  0.05822724  0.74930299  0.78863444  1
  H  H27  1  0.17138429  0.82559305  0.93862873  1
  H  H28  1  0.17074648  0.67538439  0.93816302  1
  H  H29  1  0.88713926  0.82098193  0.00162052  1
  H  H30  1  0.88756224  0.68039497  1.00038200  1
  H  H31  1  0.98973941  0.75122890  0.14582164  1
  B  B32  1  0.49996936  0.00005159  0.99994954  1
  B  B33  1  0.99973075  0.50006442  0.49963010  1
  Y  Y34  1  0.99997839  0.00001509  0.50001243  1
  Y  Y35  1  0.50002930  0.50001838  0.99992879  1
  I  I36  1  0.47992214  0.24738377  0.95063812  1
  I  I37  1  0.19128369  0.01120350  0.18606111  1
  I  I38  1  0.68669020  0.00893689  0.31063595  1
  I  I39  1  0.97924522  0.25253876  0.54991650  1
  I  I40  1  0.31331835  0.99105811  0.68940070  1
  I  I41  1  0.80871351  0.98878326  0.81398145  1
  I  I42  1  0.52009590  0.75258472  0.04943009  1
  I  I43  1  0.69132616  0.48874047  0.31405881  1
  I  I44  1  0.18676132  0.49111494  0.18934242  1
  I  I45  1  0.02076768  0.74742763  0.45010804  1
  I  I46  1  0.30885402  0.51126558  0.68610503  1
  I  I47  1  0.81328332  0.50887144  0.81075380  1
