# generated using pymatgen
data_InBiH12C2(Br3N)2
_symmetry_space_group_name_H-M   'P 1'
_cell_length_a   8.64781043
_cell_length_b   11.73141149
_cell_length_c   7.79603031
_cell_angle_alpha   92.70467718
_cell_angle_beta   89.95684053
_cell_angle_gamma   89.99044577
_symmetry_Int_Tables_number   1
_chemical_formula_structural   InBiH12C2(Br3N)2
_chemical_formula_sum   'In2 Bi2 H24 C4 Br12 N4'
_cell_volume   790.03394788
_cell_formula_units_Z   2
loop_
 _symmetry_equiv_pos_site_id
 _symmetry_equiv_pos_as_xyz
  1  'x, y, z'
loop_
 _atom_site_type_symbol
 _atom_site_label
 _atom_site_symmetry_multiplicity
 _atom_site_fract_x
 _atom_site_fract_y
 _atom_site_fract_z
 _atom_site_occupancy
  C  C0  1  0.43598935  0.23766366  0.44520643  1
  C  C1  1  0.93587001  0.26197676  0.05361440  1
  C  C2  1  0.56397085  0.76228693  0.55478323  1
  C  C3  1  0.06415958  0.73807915  0.94637365  1
  N  N4  1  0.59389405  0.25986082  0.51465433  1
  N  N5  1  0.09364720  0.24020776  0.98320665  1
  N  N6  1  0.40604314  0.74010928  0.48538821  1
  N  N7  1  0.90637574  0.75984231  0.01676546  1
  H  H8  1  0.44254181  0.23287585  0.30469087  1
  H  H9  1  0.39396156  0.15676302  0.49201115  1
  H  H10  1  0.36009228  0.30789365  0.48873554  1
  H  H11  1  0.66827649  0.19410902  0.47437207  1
  H  H12  1  0.63764863  0.33577974  0.46943349  1
  H  H13  1  0.59245502  0.26541476  0.64844583  1
  H  H14  1  0.94292306  0.26666751  0.19409664  1
  H  H15  1  0.86019305  0.19159625  0.01040526  1
  H  H16  1  0.89325266  0.34281801  0.00721509  1
  H  H17  1  0.13783896  0.16431880  0.02791364  1
  H  H18  1  0.16787437  0.30603701  0.02330848  1
  H  H19  1  0.09174375  0.23484183  0.84938635  1
  H  H20  1  0.55743509  0.76711438  0.69530637  1
  H  H21  1  0.63982387  0.69202111  0.51129045  1
  H  H22  1  0.60603352  0.84315691  0.50792197  1
  H  H23  1  0.33168562  0.80587614  0.52567557  1
  H  H24  1  0.36228608  0.66420087  0.53061113  1
  H  H25  1  0.40746005  0.73455516  0.35158276  1
  H  H26  1  0.05711282  0.73337770  0.80589055  1
  H  H27  1  0.13982370  0.80846856  0.98957359  1
  H  H28  1  0.10678673  0.65724463  0.99278953  1
  H  H29  1  0.86217333  0.83572302  0.97203642  1
  H  H30  1  0.83216259  0.69400193  0.97667573  1
  H  H31  1  0.90826954  0.76522232  0.15058545  1
  In  In32  1  0.49998085  0.99998407  0.00001236  1
  In  In33  1  0.00004342  0.50000819  0.50005497  1
  Bi  Bi34  1  0.99998608  0.00000513  0.50000055  1
  Bi  Bi35  1  0.50004851  0.49998768  0.00005297  1
  Br  Br36  1  0.50438712  0.25654249  0.93792371  1
  Br  Br37  1  0.19225801  0.01254999  0.20148440  1
  Br  Br38  1  0.72397847  0.02187573  0.30247076  1
  Br  Br39  1  0.00329202  0.24353238  0.56090049  1
  Br  Br40  1  0.27601143  0.97812394  0.69751894  1
  Br  Br41  1  0.80769361  0.98748461  0.79850010  1
  Br  Br42  1  0.49566371  0.74343222  0.06214236  1
  Br  Br43  1  0.69252618  0.48814067  0.29834512  1
  Br  Br44  1  0.22377562  0.47732339  0.19725284  1
  Br  Br45  1  0.99667763  0.75648085  0.43908918  1
  Br  Br46  1  0.30758005  0.51181606  0.70175351  1
  Br  Br47  1  0.77631649  0.52268602  0.80284804  1
