# generated using pymatgen
data_TlInH12C2(Br3N)2
_symmetry_space_group_name_H-M   'P 1'
_cell_length_a   8.15012343
_cell_length_b   11.67183474
_cell_length_c   7.90233866
_cell_angle_alpha   86.67826823
_cell_angle_beta   90.00035905
_cell_angle_gamma   90.02530722
_symmetry_Int_Tables_number   1
_chemical_formula_structural   TlInH12C2(Br3N)2
_chemical_formula_sum   'Tl2 In2 H24 C4 Br12 N4'
_cell_volume   750.46189250
_cell_formula_units_Z   2
loop_
 _symmetry_equiv_pos_site_id
 _symmetry_equiv_pos_as_xyz
  1  'x, y, z'
loop_
 _atom_site_type_symbol
 _atom_site_label
 _atom_site_symmetry_multiplicity
 _atom_site_fract_x
 _atom_site_fract_y
 _atom_site_fract_z
 _atom_site_occupancy
  C  C0  1  0.39529292  0.25005057  0.41253511  1
  C  C1  1  0.89624768  0.25004892  0.08841966  1
  C  C2  1  0.60470385  0.74995356  0.58747823  1
  C  C3  1  0.10375802  0.74995286  0.91159206  1
  N  N4  1  0.54336592  0.24808008  0.52170194  1
  N  N5  1  0.04375166  0.25191258  0.97845396  1
  N  N6  1  0.45662983  0.75192524  0.47831239  1
  N  N7  1  0.95625452  0.74808593  0.02155831  1
  H  H8  1  0.43410108  0.25192317  0.27978576  1
  H  H9  1  0.32411624  0.17216128  0.44282714  1
  H  H10  1  0.32324764  0.32624744  0.43665651  1
  H  H11  1  0.61414560  0.17700228  0.49765239  1
  H  H12  1  0.61413812  0.32134898  0.49550313  1
  H  H13  1  0.51378584  0.24366132  0.65065629  1
  H  H14  1  0.93577973  0.24817412  0.22094688  1
  H  H15  1  0.82386964  0.17385486  0.06475365  1
  H  H16  1  0.82512009  0.32795884  0.05856403  1
  H  H17  1  0.11446817  0.17865583  0.00433351  1
  H  H18  1  0.11482210  0.32300464  0.00206187  1
  H  H19  1  0.01355324  0.25632024  0.84964395  1
  H  H20  1  0.56589657  0.74808260  0.72022787  1
  H  H21  1  0.67674686  0.67375564  0.56335744  1
  H  H22  1  0.67588229  0.82784177  0.55718458  1
  H  H23  1  0.38585139  0.82300313  0.50236228  1
  H  H24  1  0.38585733  0.67865642  0.50451068  1
  H  H25  1  0.48621010  0.75634412  0.34935778  1
  H  H26  1  0.06422577  0.75182968  0.77906475  1
  H  H27  1  0.17613566  0.82614667  0.93526104  1
  H  H28  1  0.17488655  0.67204276  0.94144428  1
  H  H29  1  0.88553550  0.82134174  0.99568060  1
  H  H30  1  0.88518645  0.67699292  0.99794936  1
  H  H31  1  0.98645310  0.74367799  0.15036825  1
  In  In32  1  0.50000314  0.00000350  0.00000854  1
  In  In33  1  0.99999680  0.50000164  0.50000158  1
  Tl  Tl34  1  0.00000172  0.00000211  0.50000852  1
  Tl  Tl35  1  0.49999877  0.50000543  0.99999883  1
  Br  Br36  1  0.47400807  0.23168492  0.93874731  1
  Br  Br37  1  0.20341124  0.00438349  0.15403650  1
  Br  Br38  1  0.65144512  0.01879247  0.30345433  1
  Br  Br39  1  0.97348983  0.26833378  0.56168915  1
  Br  Br40  1  0.34855973  0.98121459  0.69656346  1
  Br  Br41  1  0.79659509  0.99561918  0.84598124  1
  Br  Br42  1  0.52599832  0.76832215  0.06127023  1
  Br  Br43  1  0.70354744  0.49544796  0.34567342  1
  Br  Br44  1  0.15170451  0.48129866  0.19670108  1
  Br  Br45  1  0.02650469  0.73166999  0.43832215  1
  Br  Br46  1  0.29644717  0.50455546  0.65432989  1
  Br  Br47  1  0.84829264  0.51870479  0.80330470  1
