# generated using pymatgen
data_InH12AuC2(Br3N)2
_symmetry_space_group_name_H-M   'P 1'
_cell_length_a   7.73893260
_cell_length_b   11.69963106
_cell_length_c   7.89626279
_cell_angle_alpha   87.13525688
_cell_angle_beta   90.01932730
_cell_angle_gamma   90.02695220
_symmetry_Int_Tables_number   1
_chemical_formula_structural   InH12AuC2(Br3N)2
_chemical_formula_sum   'In2 H24 Au2 C4 Br12 N4'
_cell_volume   714.05502217
_cell_formula_units_Z   2
loop_
 _symmetry_equiv_pos_site_id
 _symmetry_equiv_pos_as_xyz
  1  'x, y, z'
loop_
 _atom_site_type_symbol
 _atom_site_label
 _atom_site_symmetry_multiplicity
 _atom_site_fract_x
 _atom_site_fract_y
 _atom_site_fract_z
 _atom_site_occupancy
  C  C0  1  0.40828176  0.24976887  0.40880300  1
  C  C1  1  0.90907003  0.25032953  0.09154486  1
  C  C2  1  0.59171560  0.75023517  0.59120980  1
  C  C3  1  0.09093566  0.74967453  0.90846549  1
  N  N4  1  0.55995987  0.24459444  0.52334313  1
  N  N5  1  0.06037113  0.25542470  0.97664117  1
  N  N6  1  0.44003590  0.75541098  0.47667150  1
  N  N7  1  0.93963469  0.74457575  0.02336924  1
  H  H8  1  0.45395819  0.25384341  0.27751061  1
  H  H9  1  0.32953836  0.17322916  0.43373352  1
  H  H10  1  0.33439824  0.32657190  0.43336503  1
  H  H11  1  0.63524809  0.17345553  0.49995311  1
  H  H12  1  0.63652758  0.31674643  0.50205571  1
  H  H13  1  0.52522482  0.23962480  0.65125257  1
  H  H14  1  0.95517184  0.24627791  0.22272682  1
  H  H15  1  0.83491125  0.17354274  0.06723220  1
  H  H16  1  0.83042514  0.32689604  0.06677593  1
  H  H17  1  0.13685494  0.18325676  0.99779501  1
  H  H18  1  0.13587755  0.32656051  0.99981875  1
  H  H19  1  0.02525118  0.26037679  0.84881110  1
  H  H20  1  0.54604072  0.74616190  0.72250279  1
  H  H21  1  0.66559682  0.67343119  0.56664760  1
  H  H22  1  0.67046073  0.82677375  0.56627824  1
  H  H23  1  0.36474967  0.82655109  0.50006219  1
  H  H24  1  0.36346704  0.68325988  0.49795984  1
  H  H25  1  0.47477016  0.76037936  0.34876173  1
  H  H26  1  0.04483353  0.75372664  0.77728376  1
  H  H27  1  0.16509171  0.82646237  0.93277928  1
  H  H28  1  0.16958317  0.67310897  0.93323282  1
  H  H29  1  0.86314793  0.81674228  0.00221604  1
  H  H30  1  0.86413067  0.67343882  0.00019056  1
  H  H31  1  0.97475410  0.73962354  0.15119934  1
  In  In32  1  0.50001756  0.00000254  0.00002816  1
  In  In33  1  0.00000000  0.50000120  0.50000518  1
  Au  Au34  1  0.99999798  0.00000151  0.49999842  1
  Au  Au35  1  0.49999973  0.50000101  0.00000649  1
  Br  Br36  1  0.48474201  0.22595246  0.93854143  1
  Br  Br37  1  0.20987215  0.00575081  0.16838886  1
  Br  Br38  1  0.71815817  0.01276857  0.34029203  1
  Br  Br39  1  0.98426422  0.27406553  0.56170577  1
  Br  Br40  1  0.28182635  0.98723686  0.65971396  1
  Br  Br41  1  0.79013247  0.99425103  0.83161933  1
  Br  Br42  1  0.51526409  0.77404877  0.06147541  1
  Br  Br43  1  0.70986350  0.49419991  0.33144847  1
  Br  Br44  1  0.21826837  0.48739261  0.15977342  1
  Br  Br45  1  0.01573300  0.72593704  0.43830653  1
  Br  Br46  1  0.29013615  0.50580232  0.66856263  1
  Br  Br47  1  0.78172990  0.51261042  0.84023776  1
