# generated using pymatgen
data_InH12IrC2(Br3N)2
_symmetry_space_group_name_H-M   'P 1'
_cell_length_a   7.93992858
_cell_length_b   11.18294713
_cell_length_c   7.72340262
_cell_angle_alpha   93.71812008
_cell_angle_beta   89.99902893
_cell_angle_gamma   89.97386964
_symmetry_Int_Tables_number   1
_chemical_formula_structural   InH12IrC2(Br3N)2
_chemical_formula_sum   'In2 H24 Ir2 C4 Br12 N4'
_cell_volume   684.33131424
_cell_formula_units_Z   2
loop_
 _symmetry_equiv_pos_site_id
 _symmetry_equiv_pos_as_xyz
  1  'x, y, z'
loop_
 _atom_site_type_symbol
 _atom_site_label
 _atom_site_symmetry_multiplicity
 _atom_site_fract_x
 _atom_site_fract_y
 _atom_site_fract_z
 _atom_site_occupancy
  C  C0  1  0.39672646  0.25057223  0.41238350  1
  C  C1  1  0.89775209  0.24964718  0.08844793  1
  C  C2  1  0.60327143  0.74943269  0.58762778  1
  C  C3  1  0.10225179  0.75035601  0.91156514  1
  N  N4  1  0.54766584  0.25267278  0.52473491  1
  N  N5  1  0.04811099  0.24733321  0.97526638  1
  N  N6  1  0.45233237  0.74733229  0.47527621  1
  N  N7  1  0.95189459  0.75266521  0.02474881  1
  H  H8  1  0.43707524  0.24792599  0.27687284  1
  H  H9  1  0.32190931  0.17174351  0.43691897  1
  H  H10  1  0.32425069  0.33219027  0.44287164  1
  H  H11  1  0.62050343  0.17638557  0.49757241  1
  H  H12  1  0.62091992  0.32649669  0.50194741  1
  H  H13  1  0.51637728  0.25759016  0.65652918  1
  H  H14  1  0.93880336  0.25234180  0.22372003  1
  H  H15  1  0.82509169  0.16806940  0.05851999  1
  H  H16  1  0.82282032  0.32852999  0.06424194  1
  H  H17  1  0.12145003  0.17344882  0.99770865  1
  H  H18  1  0.12110280  0.32356562  0.00204284  1
  H  H19  1  0.01619701  0.24242488  0.84365041  1
  H  H20  1  0.56292339  0.75208033  0.72313816  1
  H  H21  1  0.67574619  0.66781375  0.55714071  1
  H  H22  1  0.67808995  0.82826063  0.56309046  1
  H  H23  1  0.37949482  0.82361986  0.50243941  1
  H  H24  1  0.37907747  0.67350863  0.49806545  1
  H  H25  1  0.48361974  0.74241455  0.34348249  1
  H  H26  1  0.06119850  0.74766348  0.77629367  1
  H  H27  1  0.17491051  0.83193421  0.94149564  1
  H  H28  1  0.17718616  0.67147346  0.93576611  1
  H  H29  1  0.87855177  0.82654818  0.00231018  1
  H  H30  1  0.87890592  0.67643151  0.99797108  1
  H  H31  1  0.98381048  0.75757266  0.15636432  1
  In  In32  1  0.50000270  0.00000282  0.00000659  1
  In  In33  1  0.99999661  0.50000193  0.50000067  1
  Ir  Ir34  1  0.00000017  0.00000163  0.50000790  1
  Ir  Ir35  1  0.50000000  0.50000282  0.00000356  1
  Br  Br36  1  0.47628396  0.27490241  0.94808825  1
  Br  Br37  1  0.15820876  0.01129141  0.21577511  1
  Br  Br38  1  0.72419530  0.99913880  0.33409913  1
  Br  Br39  1  0.97560845  0.22505121  0.55231978  1
  Br  Br40  1  0.27580540  0.00086561  0.66591648  1
  Br  Br41  1  0.84179292  0.98870997  0.78424145  1
  Br  Br42  1  0.52371784  0.72510327  0.05192191  1
  Br  Br43  1  0.65795989  0.48867744  0.28430654  1
  Br  Br44  1  0.22407195  0.50093647  0.16569248  1
  Br  Br45  1  0.02439117  0.77495177  0.44769632  1
  Br  Br46  1  0.34203917  0.51132725  0.71570095  1
  Br  Br47  1  0.77592786  0.49906789  0.83431482  1
