# generated using pymatgen
data_InSbH12C2(Br3N)2
_symmetry_space_group_name_H-M   'P 1'
_cell_length_a   8.39002185
_cell_length_b   11.64446944
_cell_length_c   7.88075256
_cell_angle_alpha   91.69232287
_cell_angle_beta   90.00223398
_cell_angle_gamma   90.00712587
_symmetry_Int_Tables_number   1
_chemical_formula_structural   InSbH12C2(Br3N)2
_chemical_formula_sum   'In2 Sb2 H24 C4 Br12 N4'
_cell_volume   769.59283641
_cell_formula_units_Z   2
loop_
 _symmetry_equiv_pos_site_id
 _symmetry_equiv_pos_as_xyz
  1  'x, y, z'
loop_
 _atom_site_type_symbol
 _atom_site_label
 _atom_site_symmetry_multiplicity
 _atom_site_fract_x
 _atom_site_fract_y
 _atom_site_fract_z
 _atom_site_occupancy
  C  C0  1  0.42225716  0.25003220  0.43532247  1
  C  C1  1  0.92179505  0.24998525  0.06449238  1
  C  C2  1  0.57781621  0.75003253  0.56462367  1
  C  C3  1  0.07806949  0.74992644  0.93556014  1
  N  N4  1  0.57522886  0.25181481  0.53044452  1
  N  N5  1  0.07482910  0.24821673  0.96949949  1
  N  N6  1  0.42483961  0.74824714  0.46951134  1
  N  N7  1  0.92503670  0.75162974  0.03055676  1
  H  H8  1  0.44883301  0.24856366  0.29936271  1
  H  H9  1  0.35563426  0.17309674  0.46813164  1
  H  H10  1  0.35503822  0.32761985  0.47030106  1
  H  H11  1  0.64261579  0.17942634  0.49801568  1
  H  H12  1  0.64123700  0.32357513  0.49906542  1
  H  H13  1  0.55650660  0.25406362  0.66146698  1
  H  H14  1  0.94829915  0.25162547  0.20048701  1
  H  H15  1  0.85469166  0.17231337  0.02965249  1
  H  H16  1  0.85511021  0.32682657  0.03145078  1
  H  H17  1  0.14083803  0.17649343  0.00096268  1
  H  H18  1  0.14217891  0.32063098  0.00187714  1
  H  H19  1  0.05617239  0.24591403  0.83843678  1
  H  H20  1  0.55123984  0.75149906  0.70058812  1
  H  H21  1  0.64503397  0.67244667  0.52964398  1
  H  H22  1  0.64443239  0.82696897  0.53181185  1
  H  H23  1  0.35744584  0.82062742  0.50194640  1
  H  H24  1  0.35884231  0.67648136  0.50086232  1
  H  H25  1  0.44356378  0.74601566  0.33847823  1
  H  H26  1  0.05156452  0.74832790  0.79956745  1
  H  H27  1  0.14514867  0.82760176  0.97045738  1
  H  H28  1  0.14477946  0.67308603  0.96854929  1
  H  H29  1  0.85895838  0.82331823  0.99912417  1
  H  H30  1  0.85775091  0.67917933  0.99815700  1
  H  H31  1  0.94369923  0.75393002  0.16161585  1
  In  In32  1  0.50007463  0.00004901  0.99991022  1
  In  In33  1  0.00004141  0.50008657  0.50018428  1
  Sb  Sb34  1  0.00005873  0.00006217  0.49994379  1
  Sb  Sb35  1  0.49997144  0.50002447  0.00012412  1
  Br  Br36  1  0.49082300  0.25920065  0.94643787  1
  Br  Br37  1  0.18357050  0.01908558  0.20186765  1
  Br  Br38  1  0.71298665  0.01395890  0.31687412  1
  Br  Br39  1  0.99121547  0.24093018  0.55334905  1
  Br  Br40  1  0.28710632  0.98610882  0.68303836  1
  Br  Br41  1  0.81663756  0.98092734  0.79800026  1
  Br  Br42  1  0.50910916  0.74088196  0.05355180  1
  Br  Br43  1  0.68360261  0.48096568  0.29812416  1
  Br  Br44  1  0.21288513  0.48609317  0.18319658  1
  Br  Br45  1  0.00887267  0.75921469  0.44663588  1
  Br  Br46  1  0.31656701  0.51911281  0.70204256  1
  Br  Br47  1  0.78701471  0.51385982  0.81699273  1
