# generated using pymatgen
data_SnH12PbC2(Br3N)2
_symmetry_space_group_name_H-M   'P 1'
_cell_length_a   8.37695376
_cell_length_b   11.74262555
_cell_length_c   7.84819692
_cell_angle_alpha   89.83845806
_cell_angle_beta   89.93240105
_cell_angle_gamma   89.96769671
_symmetry_Int_Tables_number   1
_chemical_formula_structural   SnH12PbC2(Br3N)2
_chemical_formula_sum   'Sn2 H24 Pb2 C4 Br12 N4'
_cell_volume   772.00324395
_cell_formula_units_Z   2
loop_
 _symmetry_equiv_pos_site_id
 _symmetry_equiv_pos_as_xyz
  1  'x, y, z'
loop_
 _atom_site_type_symbol
 _atom_site_label
 _atom_site_symmetry_multiplicity
 _atom_site_fract_x
 _atom_site_fract_y
 _atom_site_fract_z
 _atom_site_occupancy
  C  C0  1  0.41156994  0.24903878  0.43211599  1
  C  C1  1  0.91161213  0.24999178  0.06820176  1
  C  C2  1  0.58852169  0.74962923  0.56854807  1
  C  C3  1  0.08864001  0.75098785  0.93202925  1
  N  N4  1  0.56870705  0.24867607  0.51957362  1
  N  N5  1  0.06837365  0.25039698  0.97955194  1
  N  N6  1  0.43167376  0.74978934  0.48048504  1
  N  N7  1  0.93154100  0.75100976  0.01998362  1
  H  H8  1  0.43175987  0.24927184  0.29430016  1
  H  H9  1  0.34626451  0.17238055  0.46950682  1
  H  H10  1  0.34594124  0.32544812  0.46978789  1
  H  H11  1  0.63429329  0.17727468  0.48330532  1
  H  H12  1  0.63361721  0.32074441  0.48453078  1
  H  H13  1  0.55548980  0.24789152  0.65177495  1
  H  H14  1  0.93236373  0.24987400  0.20587168  1
  H  H15  1  0.84618466  0.17346542  0.03122226  1
  H  H16  1  0.84576396  0.32654115  0.03117151  1
  H  H17  1  0.13457767  0.17899184  0.01489710  1
  H  H18  1  0.13300409  0.32242448  0.01454920  1
  H  H19  1  0.05463854  0.25049563  0.84743481  1
  H  H20  1  0.56788774  0.75001869  0.70628672  1
  H  H21  1  0.65401265  0.67300002  0.53177923  1
  H  H22  1  0.65421259  0.82606708  0.53074265  1
  H  H23  1  0.36696805  0.82180415  0.51564041  1
  H  H24  1  0.36558113  0.67835967  0.51605499  1
  H  H25  1  0.44531379  0.74984528  0.34832119  1
  H  H26  1  0.06844509  0.75082336  0.79426294  1
  H  H27  1  0.15431221  0.82740903  0.96910060  1
  H  H28  1  0.15395160  0.67434344  0.96958564  1
  H  H29  1  0.86655653  0.82309962  0.98498969  1
  H  H30  1  0.86597913  0.67963636  0.98408297  1
  H  H31  1  0.94482364  0.75031855  0.15214436  1
  Sn  Sn32  1  0.50291631  0.00006311  0.00178734  1
  Sn  Sn33  1  0.99556388  0.49974667  0.49786725  1
  Pb  Pb34  1  0.00425547  0.99967995  0.50165083  1
  Pb  Pb35  1  0.49692689  0.50011247  0.99762199  1
  Br  Br36  1  0.48432175  0.24803458  0.93887144  1
  Br  Br37  1  0.19813871  0.01726979  0.18254739  1
  Br  Br38  1  0.69568762  0.01670073  0.31377648  1
  Br  Br39  1  0.98382229  0.25214416  0.56078215  1
  Br  Br40  1  0.31573743  0.98266210  0.68823367  1
  Br  Br41  1  0.80658583  0.98379608  0.81744171  1
  Br  Br42  1  0.51536820  0.75259153  0.06104567  1
  Br  Br43  1  0.68841821  0.48319826  0.31699920  1
  Br  Br44  1  0.18685666  0.48267125  0.18597902  1
  Br  Br45  1  0.01630771  0.74760287  0.43880636  1
  Br  Br46  1  0.29761884  0.51659000  0.68120875  1
  Br  Br47  1  0.80891600  0.51816602  0.81384417  1
