# generated using pymatgen
data_SnHgH12C2(Br3N)2
_symmetry_space_group_name_H-M   'P 1'
_cell_length_a   7.98401918
_cell_length_b   11.49335411
_cell_length_c   7.82667126
_cell_angle_alpha   90.05745399
_cell_angle_beta   90.00932645
_cell_angle_gamma   90.00483755
_symmetry_Int_Tables_number   1
_chemical_formula_structural   SnHgH12C2(Br3N)2
_chemical_formula_sum   'Sn2 Hg2 H24 C4 Br12 N4'
_cell_volume   718.19971182
_cell_formula_units_Z   2
loop_
 _symmetry_equiv_pos_site_id
 _symmetry_equiv_pos_as_xyz
  1  'x, y, z'
loop_
 _atom_site_type_symbol
 _atom_site_label
 _atom_site_symmetry_multiplicity
 _atom_site_fract_x
 _atom_site_fract_y
 _atom_site_fract_z
 _atom_site_occupancy
  C  C0  1  0.39333111  0.24995905  0.41219632  1
  C  C1  1  0.89443579  0.25021863  0.08880030  1
  C  C2  1  0.60666597  0.75004552  0.58781669  1
  C  C3  1  0.10557018  0.74978280  0.91121257  1
  N  N4  1  0.54321946  0.25002531  0.52359083  1
  N  N5  1  0.04367383  0.25000385  0.97656494  1
  N  N6  1  0.45677701  0.74997956  0.47642298  1
  N  N7  1  0.95633325  0.74999398  0.02344948  1
  H  H8  1  0.43410487  0.25037095  0.27879256  1
  H  H9  1  0.31950783  0.17210593  0.43871244  1
  H  H10  1  0.32046264  0.32820357  0.43886874  1
  H  H11  1  0.61592957  0.17691246  0.49896607  1
  H  H12  1  0.61559819  0.32307160  0.49803759  1
  H  H13  1  0.51218646  0.25060854  0.65321361  1
  H  H14  1  0.93601725  0.24985178  0.22195835  1
  H  H15  1  0.82127617  0.17200061  0.06268882  1
  H  H16  1  0.82058785  0.32811736  0.06266003  1
  H  H17  1  0.11605645  0.17691354  0.00179265  1
  H  H18  1  0.11661753  0.32307911  0.00076614  1
  H  H19  1  0.01193982  0.24940575  0.84710979  1
  H  H20  1  0.56589256  0.74963551  0.72122065  1
  H  H21  1  0.67953226  0.67179990  0.56114582  1
  H  H22  1  0.68049066  0.82789743  0.56129881  1
  H  H23  1  0.38406738  0.82309259  0.50104783  1
  H  H24  1  0.38439826  0.67693331  0.50197640  1
  H  H25  1  0.48780981  0.74939633  0.34679983  1
  H  H26  1  0.06398731  0.75015158  0.77805492  1
  H  H27  1  0.17872913  0.82800073  0.93732672  1
  H  H28  1  0.17941927  0.67188401  0.93734874  1
  H  H29  1  0.88394768  0.82308313  0.99822416  1
  H  H30  1  0.88339209  0.67691770  0.99924748  1
  H  H31  1  0.98806835  0.75059176  0.15290440  1
  Sn  Sn32  1  0.50000211  0.00000522  0.00000818  1
  Sn  Sn33  1  0.99999352  0.50000235  0.49999656  1
  Hg  Hg34  1  0.00000104  0.00000318  0.50000977  1
  Hg  Hg35  1  0.49999788  0.50000790  0.99999428  1
  Br  Br36  1  0.47278860  0.25133889  0.94321049  1
  Br  Br37  1  0.18038843  0.01101506  0.18438337  1
  Br  Br38  1  0.68981232  0.01009230  0.32297387  1
  Br  Br39  1  0.97213187  0.24865983  0.55734118  1
  Br  Br40  1  0.31019105  0.98991319  0.67704350  1
  Br  Br41  1  0.81961717  0.98898490  0.81563553  1
  Br  Br42  1  0.52721595  0.74866952  0.05680347  1
  Br  Br43  1  0.68028977  0.48887161  0.31557516  1
  Br  Br44  1  0.18986587  0.49005474  0.17706697  1
  Br  Br45  1  0.02786470  0.75134380  0.44267388  1
  Br  Br46  1  0.31970324  0.51113265  0.68442665  1
  Br  Br47  1  0.81013422  0.50994925  0.82293707  1
