# generated using pymatgen
data_SnH12PtC2(Br3N)2
_symmetry_space_group_name_H-M   'P 1'
_cell_length_a   8.17448547
_cell_length_b   10.59732684
_cell_length_c   8.49661263
_cell_angle_alpha   89.07762913
_cell_angle_beta   103.98408676
_cell_angle_gamma   91.01849718
_symmetry_Int_Tables_number   1
_chemical_formula_structural   SnH12PtC2(Br3N)2
_chemical_formula_sum   'Sn2 H24 Pt2 C4 Br12 N4'
_cell_volume   714.06211604
_cell_formula_units_Z   2
loop_
 _symmetry_equiv_pos_site_id
 _symmetry_equiv_pos_as_xyz
  1  'x, y, z'
loop_
 _atom_site_type_symbol
 _atom_site_label
 _atom_site_symmetry_multiplicity
 _atom_site_fract_x
 _atom_site_fract_y
 _atom_site_fract_z
 _atom_site_occupancy
  C  C0  1  0.41998436  0.25420120  0.42549507  1
  C  C1  1  0.95193673  0.23178292  0.12072473  1
  C  C2  1  0.56729049  0.76442113  0.60301132  1
  C  C3  1  0.06401716  0.75498547  0.85646994  1
  N  N4  1  0.55031769  0.24067117  0.57993286  1
  N  N5  1  0.04271064  0.24454486  0.98978460  1
  N  N6  1  0.43807035  0.73938819  0.45049642  1
  N  N7  1  0.96533902  0.76208727  0.98110138  1
  H  H8  1  0.48146358  0.25324254  0.32452665  1
  H  H9  1  0.32966482  0.17569717  0.41593423  1
  H  H10  1  0.35827684  0.34465758  0.42701743  1
  H  H11  1  0.61026789  0.15440288  0.59052091  1
  H  H12  1  0.64201189  0.31115263  0.58565937  1
  H  H13  1  0.50055767  0.24931514  0.68094236  1
  H  H14  1  0.04469106  0.22724707  0.23728888  1
  H  H15  1  0.87829885  0.14396483  0.10367237  1
  H  H16  1  0.86767330  0.31196343  0.11325728  1
  H  H17  1  0.12492288  0.16928624  0.99906657  1
  H  H18  1  0.11390190  0.32804874  0.00123345  1
  H  H19  1  0.96236640  0.24143577  0.87536391  1
  H  H20  1  0.50424283  0.76670297  0.70277685  1
  H  H21  1  0.65807130  0.68783843  0.62367441  1
  H  H22  1  0.62933179  0.85489031  0.59092180  1
  H  H23  1  0.35181926  0.81195682  0.42389024  1
  H  H24  1  0.37083059  0.65732957  0.46351546  1
  H  H25  1  0.49084657  0.72922491  0.35164386  1
  H  H26  1  0.97865756  0.73112811  0.74001592  1
  H  H27  1  0.12269257  0.84722693  0.84622031  1
  H  H28  1  0.15965299  0.68235165  0.89217605  1
  H  H29  1  0.88196042  0.83744270  0.95296115  1
  H  H30  1  0.89532697  0.67909635  0.98435519  1
  H  H31  1  0.04022270  0.77944162  0.09586103  1
  Sn  Sn32  1  0.50236736  0.99357815  0.99742680  1
  Sn  Sn33  1  0.99726530  0.49782816  0.37849995  1
  Pt  Pt34  1  0.99439806  0.00606483  0.48205592  1
  Pt  Pt35  1  0.51434530  0.49772044  0.01934593  1
  Br  Br36  1  0.45412645  0.27167000  0.95131421  1
  Br  Br37  1  0.24281104  0.98733683  0.15966777  1
  Br  Br38  1  0.69570093  0.02244979  0.33759176  1
  Br  Br39  1  0.99738891  0.22677938  0.56559158  1
  Br  Br40  1  0.28772567  0.98852239  0.64209075  1
  Br  Br41  1  0.77297962  0.01778794  0.82423410  1
  Br  Br42  1  0.57511256  0.72150636  0.08921339  1
  Br  Br43  1  0.70901203  0.49747473  0.46217520  1
  Br  Br44  1  0.26504145  0.50586489  0.13607410  1
  Br  Br45  1  0.99793699  0.78551439  0.38568680  1
  Br  Br46  1  0.24071372  0.51990753  0.64540298  1
  Br  Br47  1  0.75567929  0.49294586  0.89441335  1
