# generated using pymatgen
data_BaSnH12C2(Br3N)2
_symmetry_space_group_name_H-M   'P 1'
_cell_length_a   8.43875370
_cell_length_b   12.02371115
_cell_length_c   8.02246972
_cell_angle_alpha   89.15655969
_cell_angle_beta   90.00132767
_cell_angle_gamma   89.99905501
_symmetry_Int_Tables_number   1
_chemical_formula_structural   BaSnH12C2(Br3N)2
_chemical_formula_sum   'Ba2 Sn2 H24 C4 Br12 N4'
_cell_volume   813.91279216
_cell_formula_units_Z   2
loop_
 _symmetry_equiv_pos_site_id
 _symmetry_equiv_pos_as_xyz
  1  'x, y, z'
loop_
 _atom_site_type_symbol
 _atom_site_label
 _atom_site_symmetry_multiplicity
 _atom_site_fract_x
 _atom_site_fract_y
 _atom_site_fract_z
 _atom_site_occupancy
  C  C0  1  0.39358712  0.25036809  0.41772973  1
  C  C1  1  0.89399546  0.24962400  0.08261867  1
  C  C2  1  0.60640409  0.74963981  0.58226135  1
  C  C3  1  0.10600183  0.75037408  0.91739202  1
  N  N4  1  0.54016906  0.24967112  0.51993503  1
  N  N5  1  0.04039701  0.25032638  0.98013650  1
  N  N6  1  0.45982546  0.75032663  0.48005002  1
  N  N7  1  0.95961322  0.74967427  0.01989472  1
  H  H8  1  0.42679158  0.25011971  0.28571384  1
  H  H9  1  0.32610950  0.17506865  0.44758703  1
  H  H10  1  0.32479844  0.32479396  0.44592411  1
  H  H11  1  0.60715600  0.17966549  0.49154191  1
  H  H12  1  0.60792305  0.32019222  0.49263479  1
  H  H13  1  0.51496096  0.24787926  0.64756994  1
  H  H14  1  0.92745057  0.24988020  0.21456735  1
  H  H15  1  0.82515837  0.17520046  0.05457555  1
  H  H16  1  0.82646582  0.32493343  0.05291200  1
  H  H17  1  0.10819025  0.17979927  0.00732472  1
  H  H18  1  0.10742552  0.32032515  0.00840392  1
  H  H19  1  0.01498448  0.25211137  0.85254278  1
  H  H20  1  0.57319375  0.74988818  0.71427541  1
  H  H21  1  0.67519983  0.67521610  0.55407348  1
  H  H22  1  0.67387535  0.82494160  0.55240146  1
  H  H23  1  0.39283064  0.82033014  0.50843279  1
  H  H24  1  0.39207644  0.67980490  0.50735549  1
  H  H25  1  0.48503774  0.75211580  0.35241541  1
  H  H26  1  0.07252967  0.75012814  0.78544817  1
  H  H27  1  0.17485102  0.82479261  0.94543361  1
  H  H28  1  0.17352754  0.67505947  0.94707807  1
  H  H29  1  0.89181604  0.82019931  0.99270925  1
  H  H30  1  0.89258200  0.67967357  0.99163975  1
  H  H31  1  0.98503916  0.74789289  0.14748500  1
  Sn  Sn32  1  0.50000484  0.00000314  0.99998021  1
  Sn  Sn33  1  0.00001168  0.50001029  0.50005151  1
  Ba  Ba34  1  0.99999762  0.00001213  0.49998805  1
  Ba  Ba35  1  0.49999837  0.49999710  0.00005440  1
  Br  Br36  1  0.46591853  0.24177820  0.92878865  1
  Br  Br37  1  0.18564050  0.01889882  0.15754812  1
  Br  Br38  1  0.66460470  0.02384852  0.32327945  1
  Br  Br39  1  0.96582930  0.25823449  0.57136447  1
  Br  Br40  1  0.33539097  0.97615965  0.67669449  1
  Br  Br41  1  0.81437799  0.98109924  0.84243853  1
  Br  Br42  1  0.53408586  0.75822810  0.07120251  1
  Br  Br43  1  0.68563079  0.48102638  0.34248662  1
  Br  Br44  1  0.16462453  0.47621519  0.17675815  1
  Br  Br45  1  0.03418495  0.74178438  0.42866792  1
  Br  Br46  1  0.31439397  0.51898484  0.65759967  1
  Br  Br47  1  0.83536221  0.52378154  0.82332995  1
