# generated using pymatgen
data_TlSbH12C2(Br3N)2
_symmetry_space_group_name_H-M   'P 1'
_cell_length_a   8.49079774
_cell_length_b   11.78051647
_cell_length_c   7.87639262
_cell_angle_alpha   88.95260045
_cell_angle_beta   89.99258276
_cell_angle_gamma   89.99639506
_symmetry_Int_Tables_number   1
_chemical_formula_structural   TlSbH12C2(Br3N)2
_chemical_formula_sum   'Tl2 Sb2 H24 C4 Br12 N4'
_cell_volume   787.71226663
_cell_formula_units_Z   2
loop_
 _symmetry_equiv_pos_site_id
 _symmetry_equiv_pos_as_xyz
  1  'x, y, z'
loop_
 _atom_site_type_symbol
 _atom_site_label
 _atom_site_symmetry_multiplicity
 _atom_site_fract_x
 _atom_site_fract_y
 _atom_site_fract_z
 _atom_site_occupancy
  C  C0  1  0.42456921  0.24828846  0.43807301  1
  C  C1  1  0.92449611  0.25163082  0.06162925  1
  C  C2  1  0.57543077  0.75173810  0.56193478  1
  C  C3  1  0.07551219  0.74834371  0.93839222  1
  N  N4  1  0.57935055  0.25339459  0.52599485  1
  N  N5  1  0.07928301  0.24666277  0.97365259  1
  N  N6  1  0.42064872  0.74663108  0.47401441  1
  N  N7  1  0.92072097  0.75332105  0.02635960  1
  H  H8  1  0.44549295  0.24939799  0.30085653  1
  H  H9  1  0.36570753  0.16918984  0.47599821  1
  H  H10  1  0.35418001  0.32178325  0.47405501  1
  H  H11  1  0.64823041  0.18483589  0.49109392  1
  H  H12  1  0.63956686  0.32732357  0.49075123  1
  H  H13  1  0.56567620  0.25097849  0.65773953  1
  H  H14  1  0.94544365  0.25071964  0.19883402  1
  H  H15  1  0.85434113  0.17798096  0.02587788  1
  H  H16  1  0.86537236  0.33059196  0.02351178  1
  H  H17  1  0.13966119  0.17281084  0.00895878  1
  H  H18  1  0.14800802  0.31530980  0.00845286  1
  H  H19  1  0.06558780  0.24899882  0.84191193  1
  H  H20  1  0.55450689  0.75064430  0.69915085  1
  H  H21  1  0.64581300  0.67823582  0.52596965  1
  H  H22  1  0.63429979  0.83082982  0.52399094  1
  H  H23  1  0.35177396  0.81519462  0.50891070  1
  H  H24  1  0.36042711  0.67270636  0.50926595  1
  H  H25  1  0.43432160  0.74904128  0.34226976  1
  H  H26  1  0.05457078  0.74923786  0.80118660  1
  H  H27  1  0.14566564  0.82199806  0.97412719  1
  H  H28  1  0.13463421  0.66938682  0.97653384  1
  H  H29  1  0.86034612  0.82717156  0.99104073  1
  H  H30  1  0.85199629  0.68467229  0.99156478  1
  H  H31  1  0.93441042  0.75099248  0.15810080  1
  Sb  Sb32  1  0.50000358  0.00000119  0.99999648  1
  Sb  Sb33  1  0.99999644  0.50000279  0.50001195  1
  Tl  Tl34  1  0.99999904  0.00000413  0.49999290  1
  Tl  Tl35  1  0.49999486  0.50000039  0.00001131  1
  Br  Br36  1  0.49210983  0.23623669  0.94215540  1
  Br  Br37  1  0.21517991  0.01445635  0.17715565  1
  Br  Br38  1  0.67710563  0.02260268  0.29863365  1
  Br  Br39  1  0.99192307  0.26375306  0.55754165  1
  Br  Br40  1  0.32288545  0.97741298  0.70136357  1
  Br  Br41  1  0.78483026  0.98553526  0.82284190  1
  Br  Br42  1  0.50789186  0.76376722  0.05784710  1
  Br  Br43  1  0.71515637  0.48579073  0.32288245  1
  Br  Br44  1  0.17695430  0.47738245  0.20123594  1
  Br  Br45  1  0.00807467  0.73625161  0.44247470  1
  Br  Br46  1  0.28482466  0.51423910  0.67714791  1
  Br  Br47  1  0.82304835  0.52259875  0.79879985  1
