# generated using pymatgen
data_MgH6CI3N
_symmetry_space_group_name_H-M   'P 1'
_cell_length_a   8.00078431
_cell_length_b   11.70960163
_cell_length_c   8.31190256
_cell_angle_alpha   89.99984630
_cell_angle_beta   89.99454206
_cell_angle_gamma   89.99867429
_symmetry_Int_Tables_number   1
_chemical_formula_structural   MgH6CI3N
_chemical_formula_sum   'Mg4 H24 C4 I12 N4'
_cell_volume   778.70887516
_cell_formula_units_Z   4
loop_
 _symmetry_equiv_pos_site_id
 _symmetry_equiv_pos_as_xyz
  1  'x, y, z'
loop_
 _atom_site_type_symbol
 _atom_site_label
 _atom_site_symmetry_multiplicity
 _atom_site_fract_x
 _atom_site_fract_y
 _atom_site_fract_z
 _atom_site_occupancy
  C  C0  1  0.44389652  0.24992248  0.41259574  1
  C  C1  1  0.94364597  0.24992066  0.08726006  1
  C  C2  1  0.55610575  0.75008091  0.58741488  1
  C  C3  1  0.05635443  0.75008220  0.91275078  1
  N  N4  1  0.54363011  0.24997446  0.56257274  1
  N  N5  1  0.04358384  0.24997368  0.93739111  1
  N  N6  1  0.45636963  0.75002845  0.43743935  1
  N  N7  1  0.95642007  0.75002823  0.06262183  1
  H  H8  1  0.53018721  0.24990581  0.31085212  1
  H  H9  1  0.36629547  0.17304421  0.40995359  1
  H  H10  1  0.36624722  0.32678214  0.40987383  1
  H  H11  1  0.62014175  0.17868941  0.56815854  1
  H  H12  1  0.62009360  0.32127702  0.56808855  1
  H  H13  1  0.47088514  0.24998335  0.66631366  1
  H  H14  1  0.02978660  0.24990377  0.18910457  1
  H  H15  1  0.86603943  0.17304328  0.08981104  1
  H  H16  1  0.86598943  0.32677795  0.08989089  1
  H  H17  1  0.12010359  0.17868899  0.93188273  1
  H  H18  1  0.12005410  0.32127626  0.93195241  1
  H  H19  1  0.97097809  0.24998259  0.83356830  1
  H  H20  1  0.46981693  0.75009884  0.68915980  1
  H  H21  1  0.63375425  0.67322112  0.59013676  1
  H  H22  1  0.63370761  0.82695903  0.59005494  1
  H  H23  1  0.37985826  0.82131372  0.43185451  1
  H  H24  1  0.37990572  0.67872612  0.43192597  1
  H  H25  1  0.52911276  0.75001883  0.33369726  1
  H  H26  1  0.97021049  0.75010071  0.81090758  1
  H  H27  1  0.13396133  0.82695929  0.91019938  1
  H  H28  1  0.13400952  0.67322481  0.91011650  1
  H  H29  1  0.87990073  0.82131330  0.06813371  1
  H  H30  1  0.87994919  0.67872583  0.06806153  1
  H  H31  1  0.02902800  0.75001815  0.16644249  1
  Mg  Mg32  1  0.49999840  0.00000363  0.00001458  1
  Mg  Mg33  1  0.00000073  0.50000335  0.50001121  1
  Mg  Mg34  1  0.99999985  0.00000297  0.50001262  1
  Mg  Mg35  1  0.50000099  0.50000307  0.00001042  1
  I  I36  1  0.48904780  0.25000002  0.97738573  1
  I  I37  1  0.19601562  0.00009290  0.18936669  1
  I  I38  1  0.69603402  0.00005830  0.31065178  1
  I  I39  1  0.98909956  0.25000104  0.52257077  1
  I  I40  1  0.30396574  0.99994329  0.68935856  1
  I  I41  1  0.80397783  0.99991148  0.81064439  1
  I  I42  1  0.51095391  0.75000349  0.02262444  1
  I  I43  1  0.69600498  0.49992271  0.31068750  1
  I  I44  1  0.19598530  0.49988641  0.18932490  1
  I  I45  1  0.01090026  0.75000235  0.47743775  1
  I  I46  1  0.30400011  0.50008267  0.68932301  1
  I  I47  1  0.80401590  0.50011508  0.81068512  1
