# generated using pymatgen
data_SrBH12C2(I3N)2
_symmetry_space_group_name_H-M   'P 1'
_cell_length_a   8.79286249
_cell_length_b   10.91778014
_cell_length_c   9.93512110
_cell_angle_alpha   79.06831156
_cell_angle_beta   75.05654838
_cell_angle_gamma   92.15777080
_symmetry_Int_Tables_number   1
_chemical_formula_structural   SrBH12C2(I3N)2
_chemical_formula_sum   'Sr2 B2 H24 C4 I12 N4'
_cell_volume   901.00650852
_cell_formula_units_Z   2
loop_
 _symmetry_equiv_pos_site_id
 _symmetry_equiv_pos_as_xyz
  1  'x, y, z'
loop_
 _atom_site_type_symbol
 _atom_site_label
 _atom_site_symmetry_multiplicity
 _atom_site_fract_x
 _atom_site_fract_y
 _atom_site_fract_z
 _atom_site_occupancy
  C  C0  1  0.46119269  0.20007239  0.42954649  1
  C  C1  1  0.95127994  0.32271023  0.99041612  1
  C  C2  1  0.43511715  0.81662516  0.55388310  1
  C  C3  1  0.15103496  0.66728743  0.90133482  1
  N  N4  1  0.57993141  0.20277931  0.51162628  1
  N  N5  1  0.00880832  0.24122836  0.88790333  1
  N  N6  1  0.34206720  0.80027536  0.45254573  1
  N  N7  1  0.02838607  0.80203313  0.18773341  1
  H  H8  1  0.51479613  0.25181756  0.32055123  1
  H  H9  1  0.43113397  0.10243505  0.42715925  1
  H  H10  1  0.35659497  0.24300591  0.47976294  1
  H  H11  1  0.67724335  0.15643126  0.46602423  1
  H  H12  1  0.61890233  0.29396223  0.50960326  1
  H  H13  1  0.53286560  0.15878208  0.61727561  1
  H  H14  1  0.05094244  0.35663053  0.02478888  1
  H  H15  1  0.86565545  0.26688211  0.08465281  1
  H  H16  1  0.89865367  0.40214958  0.94010459  1
  H  H17  1  0.06510087  0.16705698  0.92930273  1
  H  H18  1  0.09117776  0.29103976  0.79587430  1
  H  H19  1  0.91652626  0.20170173  0.85800560  1
  H  H20  1  0.35823991  0.79697257  0.66287206  1
  H  H21  1  0.53234165  0.75525077  0.54882165  1
  H  H22  1  0.48851177  0.91343801  0.52894493  1
  H  H23  1  0.19276832  0.62722406  0.80629256  1
  H  H24  1  0.31361361  0.70540721  0.46659717  1
  H  H25  1  0.41735290  0.82460598  0.35132077  1
  H  H26  1  0.07842193  0.74317271  0.87478200  1
  H  H27  1  0.25065350  0.70715414  0.93242521  1
  H  H28  1  0.07525733  0.59679038  0.98957982  1
  H  H29  1  0.91019740  0.78386470  0.19736815  1
  H  H30  1  0.08015986  0.72255141  0.16680201  1
  H  H31  1  0.06894834  0.86935109  0.09606828  1
  B  B32  1  0.41999797  0.06474915  0.98354715  1
  B  B33  1  0.99769210  0.46287276  0.41689885  1
  Sr  Sr34  1  0.05893473  0.88055574  0.41718771  1
  Sr  Sr35  1  0.38349398  0.45159937  0.96034937  1
  I  I36  1  0.61613358  0.22098369  0.87507987  1
  I  I37  1  0.25774609  0.14833844  0.16120003  1
  I  I38  1  0.79039295  0.02965631  0.28777028  1
  I  I39  1  0.99316634  0.26154764  0.52035082  1
  I  I40  1  0.28212702  0.02823548  0.82994221  1
  I  I41  1  0.91250108  0.94116727  0.71968194  1
  I  I42  1  0.50629028  0.88717867  0.06319661  1
  I  I43  1  0.82477530  0.48633583  0.28492169  1
  I  I44  1  0.25201373  0.52877087  0.27625194  1
  I  I45  1  0.93156927  0.57955152  0.58639679  1
  I  I46  1  0.35068232  0.44145096  0.65719793  1
  I  I47  1  0.67862991  0.59639542  0.97035409  1
