# generated using pymatgen
data_BaH12PbC2(Br3N)2
_symmetry_space_group_name_H-M   'P 1'
_cell_length_a   8.48428637
_cell_length_b   12.08280741
_cell_length_c   8.05085077
_cell_angle_alpha   90.70062060
_cell_angle_beta   90.00224043
_cell_angle_gamma   90.00028396
_symmetry_Int_Tables_number   1
_chemical_formula_structural   BaH12PbC2(Br3N)2
_chemical_formula_sum   'Ba2 H24 Pb2 C4 Br12 N4'
_cell_volume   825.26319635
_cell_formula_units_Z   2
loop_
 _symmetry_equiv_pos_site_id
 _symmetry_equiv_pos_as_xyz
  1  'x, y, z'
loop_
 _atom_site_type_symbol
 _atom_site_label
 _atom_site_symmetry_multiplicity
 _atom_site_fract_x
 _atom_site_fract_y
 _atom_site_fract_z
 _atom_site_occupancy
  C  C0  1  0.39183318  0.24972165  0.41725155  1
  C  C1  1  0.89248176  0.25038757  0.08336182  1
  C  C2  1  0.60816057  0.75028119  0.58274868  1
  C  C3  1  0.10751952  0.74960678  0.91664339  1
  N  N4  1  0.53733607  0.25019027  0.51947008  1
  N  N5  1  0.03766248  0.24982791  0.98065429  1
  N  N6  1  0.46266224  0.74980686  0.48052298  1
  N  N7  1  0.96234690  0.75017100  0.01936267  1
  H  H8  1  0.42508734  0.24995678  0.28574311  1
  H  H9  1  0.32335248  0.17557442  0.44522518  1
  H  H10  1  0.32456940  0.32463555  0.44672825  1
  H  H11  1  0.60463230  0.17997452  0.49222622  1
  H  H12  1  0.60417179  0.31992241  0.49138400  1
  H  H13  1  0.51195487  0.25163415  0.64656557  1
  H  H14  1  0.92617203  0.25018149  0.21474634  1
  H  H15  1  0.82505670  0.17548799  0.05420914  1
  H  H16  1  0.82397131  0.32456073  0.05558877  1
  H  H17  1  0.10450934  0.18006827  0.00856311  1
  H  H18  1  0.10509110  0.32001494  0.00767104  1
  H  H19  1  0.01193081  0.24837599  0.85363396  1
  H  H20  1  0.57490081  0.75004713  0.71425511  1
  H  H21  1  0.67542726  0.67536793  0.55327605  1
  H  H22  1  0.67664059  0.82442880  0.55477283  1
  H  H23  1  0.39536218  0.82002184  0.50775854  1
  H  H24  1  0.39582783  0.68007514  0.50861302  1
  H  H25  1  0.48804820  0.74836082  0.35342826  1
  H  H26  1  0.07382045  0.74982217  0.78526190  1
  H  H27  1  0.17495876  0.82450000  0.94579786  1
  H  H28  1  0.17602186  0.67542715  0.94440138  1
  H  H29  1  0.89549722  0.81992871  0.99145544  1
  H  H30  1  0.89491841  0.67998124  0.99235752  1
  H  H31  1  0.98808723  0.75162677  0.14638135  1
  Ba  Ba32  1  0.50000952  0.00000859  0.99997918  1
  Ba  Ba33  1  0.99999513  0.50001495  0.50004162  1
  Pb  Pb34  1  0.99999707  0.00000994  0.49999005  1
  Pb  Pb35  1  0.50000094  0.50000709  0.00003912  1
  Br  Br36  1  0.46329176  0.25640719  0.92675844  1
  Br  Br37  1  0.16530572  0.02461756  0.17239564  1
  Br  Br38  1  0.68133160  0.02029482  0.34278445  1
  Br  Br39  1  0.96315306  0.24361228  0.57347240  1
  Br  Br40  1  0.31865771  0.97970446  0.65720019  1
  Br  Br41  1  0.83472843  0.97538680  0.82759923  1
  Br  Br42  1  0.53670465  0.74361185  0.07323927  1
  Br  Br43  1  0.66524929  0.47530676  0.32765282  1
  Br  Br44  1  0.18138521  0.47980561  0.15727970  1
  Br  Br45  1  0.03683522  0.75640710  0.42652930  1
  Br  Br46  1  0.33472755  0.52473402  0.67244783  1
  Br  Br47  1  0.81863791  0.52018107  0.84282794  1
