# generated using pymatgen
data_BaHgH12C2(Br3N)2
_symmetry_space_group_name_H-M   'P 1'
_cell_length_a   8.21226545
_cell_length_b   11.86179570
_cell_length_c   7.93891325
_cell_angle_alpha   91.22293054
_cell_angle_beta   90.00547705
_cell_angle_gamma   90.00158009
_symmetry_Int_Tables_number   1
_chemical_formula_structural   BaHgH12C2(Br3N)2
_chemical_formula_sum   'Ba2 Hg2 H24 C4 Br12 N4'
_cell_volume   773.17096845
_cell_formula_units_Z   2
loop_
 _symmetry_equiv_pos_site_id
 _symmetry_equiv_pos_as_xyz
  1  'x, y, z'
loop_
 _atom_site_type_symbol
 _atom_site_label
 _atom_site_symmetry_multiplicity
 _atom_site_fract_x
 _atom_site_fract_y
 _atom_site_fract_z
 _atom_site_occupancy
  C  C0  1  0.39392670  0.24946035  0.41275319  1
  C  C1  1  0.89501491  0.25074882  0.08835107  1
  C  C2  1  0.60607040  0.75054386  0.58725989  1
  C  C3  1  0.10499129  0.74925264  0.91166265  1
  N  N4  1  0.54054301  0.25046093  0.52165780  1
  N  N5  1  0.04096975  0.24957997  0.97854382  1
  N  N6  1  0.45945423  0.74954379  0.47835479  1
  N  N7  1  0.95903767  0.75041803  0.02147183  1
  H  H8  1  0.43267769  0.24998650  0.28072817  1
  H  H9  1  0.32141026  0.17445532  0.43806154  1
  H  H10  1  0.32415237  0.32606813  0.44041784  1
  H  H11  1  0.61163356  0.17919658  0.49729065  1
  H  H12  1  0.60995108  0.32130615  0.49539994  1
  H  H13  1  0.51103321  0.25318031  0.64996905  1
  H  H14  1  0.93456271  0.25026016  0.22011744  1
  H  H15  1  0.82492899  0.17417269  0.06128153  1
  H  H16  1  0.82246890  0.32580707  0.06340941  1
  H  H17  1  0.11041261  0.17868742  0.00446738  1
  H  H18  1  0.11231182  0.32080379  0.00251075  1
  H  H19  1  0.01080150  0.24686378  0.85042463  1
  H  H20  1  0.56731991  0.75001998  0.71928452  1
  H  H21  1  0.67584284  0.67393480  0.55959703  1
  H  H22  1  0.67858888  0.82554778  0.56194927  1
  H  H23  1  0.38836394  0.82080849  0.50272328  1
  H  H24  1  0.39004529  0.67869869  0.50461358  1
  H  H25  1  0.48896329  0.74682470  0.35004456  1
  H  H26  1  0.06544163  0.74974322  0.77989701  1
  H  H27  1  0.17507705  0.82582837  0.93873505  1
  H  H28  1  0.17753785  0.67419401  0.93659974  1
  H  H29  1  0.88959184  0.82130952  0.99555105  1
  H  H30  1  0.88769805  0.67919330  0.99750362  1
  H  H31  1  0.98920724  0.75313373  0.14959082  1
  Ba  Ba32  1  0.50000296  0.00000587  0.00000809  1
  Ba  Ba33  1  0.99999358  0.50000088  0.49999588  1
  Hg  Hg34  1  0.00000200  0.00000205  0.50000926  1
  Hg  Hg35  1  0.49999755  0.50000793  0.99999654  1
  Br  Br36  1  0.46869832  0.26086785  0.93371743  1
  Br  Br37  1  0.15803301  0.02055611  0.18409525  1
  Br  Br38  1  0.69486730  0.01214831  0.34582126  1
  Br  Br39  1  0.96815394  0.23915115  0.56681833  1
  Br  Br40  1  0.30513687  0.98785749  0.65419612  1
  Br  Br41  1  0.84197237  0.97944398  0.81592265  1
  Br  Br42  1  0.53130521  0.73914205  0.06629390  1
  Br  Br43  1  0.65795661  0.47935003  0.31594088  1
  Br  Br44  1  0.19489600  0.48804284  0.15416855  1
  Br  Br45  1  0.03184517  0.76085269  0.43319954  1
  Br  Br46  1  0.34203100  0.52065356  0.68405812  1
  Br  Br47  1  0.80510139  0.51196261  0.84583191  1
