# generated using pymatgen
data_BaH12PtC2(Br3N)2
_symmetry_space_group_name_H-M   'P 1'
_cell_length_a   7.76645114
_cell_length_b   13.04833458
_cell_length_c   7.54644082
_cell_angle_alpha   87.69035459
_cell_angle_beta   89.99730835
_cell_angle_gamma   90.01447121
_symmetry_Int_Tables_number   1
_chemical_formula_structural   BaH12PtC2(Br3N)2
_chemical_formula_sum   'Ba2 H24 Pt2 C4 Br12 N4'
_cell_volume   764.12938551
_cell_formula_units_Z   2
loop_
 _symmetry_equiv_pos_site_id
 _symmetry_equiv_pos_as_xyz
  1  'x, y, z'
loop_
 _atom_site_type_symbol
 _atom_site_label
 _atom_site_symmetry_multiplicity
 _atom_site_fract_x
 _atom_site_fract_y
 _atom_site_fract_z
 _atom_site_occupancy
  C  C0  1  0.39031395  0.25075851  0.40820575  1
  C  C1  1  0.89109213  0.24939045  0.09238486  1
  C  C2  1  0.60968423  0.74924469  0.59180502  1
  C  C3  1  0.10891172  0.75061416  0.90762851  1
  N  N4  1  0.55320868  0.24896621  0.50984258  1
  N  N5  1  0.05361508  0.25097375  0.99011471  1
  N  N6  1  0.44678962  0.75103916  0.49016701  1
  N  N7  1  0.94638917  0.74902636  0.00989919  1
  H  H8  1  0.42023651  0.25267543  0.26622847  1
  H  H9  1  0.31400522  0.18287979  0.44658449  1
  H  H10  1  0.31944103  0.31989907  0.44028482  1
  H  H11  1  0.62707413  0.18477163  0.48394219  1
  H  H12  1  0.62740779  0.31296601  0.47814782  1
  H  H13  1  0.52996043  0.24758812  0.64776534  1
  H  H14  1  0.92149826  0.24751313  0.23422184  1
  H  H15  1  0.81981618  0.18027099  0.06070438  1
  H  H16  1  0.81488610  0.31730543  0.05417526  1
  H  H17  1  0.12768671  0.18692518  0.02160831  1
  H  H18  1  0.12777345  0.31511970  0.01570015  1
  H  H19  1  0.02988154  0.25234186  0.85227419  1
  H  H20  1  0.57976095  0.74732846  0.73378182  1
  H  H21  1  0.68055497  0.68010351  0.55972640  1
  H  H22  1  0.68599516  0.81712276  0.55342635  1
  H  H23  1  0.37292701  0.81523456  0.51606656  1
  H  H24  1  0.37258787  0.68704052  0.52186139  1
  H  H25  1  0.47003919  0.75241648  0.35224433  1
  H  H26  1  0.07850496  0.75249260  0.76579139  1
  H  H27  1  0.18018389  0.81973441  0.93931110  1
  H  H28  1  0.18512145  0.68270012  0.94583494  1
  H  H29  1  0.87231266  0.81307313  0.97840790  1
  H  H30  1  0.87223483  0.68487880  0.98431274  1
  H  H31  1  0.97012304  0.74765784  0.14773980  1
  Ba  Ba32  1  0.50000131  0.00000186  0.00000467  1
  Ba  Ba33  1  0.00000122  0.50000093  0.50000883  1
  Pt  Pt34  1  0.99999992  0.00000144  0.50000509  1
  Pt  Pt35  1  0.50000008  0.50000195  0.00000859  1
  Br  Br36  1  0.46510664  0.23300612  0.92570372  1
  Br  Br37  1  0.12729990  0.01040927  0.20035685  1
  Br  Br38  1  0.70847393  0.01997819  0.37414396  1
  Br  Br39  1  0.96441238  0.26704256  0.57467487  1
  Br  Br40  1  0.29152571  0.98002587  0.62586694  1
  Br  Br41  1  0.87270081  0.98959227  0.79965340  1
  Br  Br42  1  0.53489718  0.76699787  0.07430700  1
  Br  Br43  1  0.62731591  0.48953624  0.29963625  1
  Br  Br44  1  0.20845707  0.48001689  0.12587930  1
  Br  Br45  1  0.03558639  0.73295929  0.42534030  1
  Br  Br46  1  0.37268467  0.51046873  0.70038091  1
  Br  Br47  1  0.79154271  0.51998602  0.87413631  1
