# generated using pymatgen
data_BaH12OsC2(Br3N)2
_symmetry_space_group_name_H-M   'P 1'
_cell_length_a   7.99174171
_cell_length_b   11.30540141
_cell_length_c   7.73231410
_cell_angle_alpha   92.81790287
_cell_angle_beta   89.99858586
_cell_angle_gamma   89.99228768
_symmetry_Int_Tables_number   1
_chemical_formula_structural   BaH12OsC2(Br3N)2
_chemical_formula_sum   'Ba2 H24 Os2 C4 Br12 N4'
_cell_volume   697.76865144
_cell_formula_units_Z   2
loop_
 _symmetry_equiv_pos_site_id
 _symmetry_equiv_pos_as_xyz
  1  'x, y, z'
loop_
 _atom_site_type_symbol
 _atom_site_label
 _atom_site_symmetry_multiplicity
 _atom_site_fract_x
 _atom_site_fract_y
 _atom_site_fract_z
 _atom_site_occupancy
  C  C0  1  0.39461836  0.24950575  0.41142935  1
  C  C1  1  0.89557011  0.25071981  0.08942580  1
  C  C2  1  0.60538026  0.75049865  0.58858061  1
  C  C3  1  0.10443401  0.74928326  0.91058661  1
  N  N4  1  0.54470961  0.25149949  0.52321641  1
  N  N5  1  0.04514245  0.24852492  0.97688858  1
  N  N6  1  0.45528669  0.74850660  0.47679677  1
  N  N7  1  0.95486343  0.75147385  0.02312628  1
  H  H8  1  0.43446138  0.24878553  0.27599898  1
  H  H9  1  0.31910311  0.17187983  0.43702905  1
  H  H10  1  0.32410524  0.33072159  0.44076789  1
  H  H11  1  0.61730105  0.17609614  0.49752108  1
  H  H12  1  0.61649944  0.32486178  0.49675394  1
  H  H13  1  0.51405437  0.25705759  0.65497334  1
  H  H14  1  0.93616672  0.25149827  0.22466359  1
  H  H15  1  0.82482295  0.16953754  0.06073910  1
  H  H16  1  0.82002848  0.32838230  0.06417287  1
  H  H17  1  0.11690531  0.17511435  0.00295902  1
  H  H18  1  0.11789136  0.32386452  0.00214061  1
  H  H19  1  0.01381092  0.24296803  0.84522454  1
  H  H20  1  0.56553649  0.75122084  0.72401268  1
  H  H21  1  0.67589061  0.66928232  0.55924480  1
  H  H22  1  0.68089619  0.82812375  0.56298046  1
  H  H23  1  0.38269784  0.82390890  0.50249010  1
  H  H24  1  0.38349749  0.67514391  0.50325811  1
  H  H25  1  0.48594315  0.74294716  0.34503719  1
  H  H26  1  0.06383602  0.74850701  0.77534987  1
  H  H27  1  0.17517979  0.83046584  0.93927659  1
  H  H28  1  0.17997806  0.67162099  0.93583525  1
  H  H29  1  0.88309660  0.82488307  0.99705870  1
  H  H30  1  0.88211693  0.67613277  0.99787270  1
  H  H31  1  0.98619610  0.75702993  0.15478945  1
  Ba  Ba32  1  0.50000206  0.00000241  0.00000684  1
  Ba  Ba33  1  0.99999872  0.50000187  0.50000423  1
  Os  Os34  1  0.00000083  0.00000202  0.50000756  1
  Os  Os35  1  0.49999926  0.50000234  0.00000432  1
  Br  Br36  1  0.47432297  0.27647432  0.94446011  1
  Br  Br37  1  0.15320059  0.01417636  0.20956202  1
  Br  Br38  1  0.71937940  0.00284294  0.34183385  1
  Br  Br39  1  0.97371716  0.22349318  0.55600110  1
  Br  Br40  1  0.28062224  0.99716223  0.65818161  1
  Br  Br41  1  0.84680252  0.98582558  0.79045335  1
  Br  Br42  1  0.52567808  0.72353026  0.05555055  1
  Br  Br43  1  0.65305842  0.48584624  0.29048740  1
  Br  Br44  1  0.21930276  0.49725153  0.15806662  1
  Br  Br45  1  0.02628282  0.77651076  0.44401447  1
  Br  Br46  1  0.34694016  0.51415771  0.70952056  1
  Br  Br47  1  0.78069521  0.50275222  0.84194171  1
