# generated using pymatgen
data_HfHgH12C2(Br3N)2
_symmetry_space_group_name_H-M   'P 1'
_cell_length_a   7.82765561
_cell_length_b   11.93489177
_cell_length_c   8.40469588
_cell_angle_alpha   78.64283938
_cell_angle_beta   89.99687848
_cell_angle_gamma   89.99927243
_symmetry_Int_Tables_number   1
_chemical_formula_structural   HfHgH12C2(Br3N)2
_chemical_formula_sum   'Hf2 Hg2 H24 C4 Br12 N4'
_cell_volume   769.81040726
_cell_formula_units_Z   2
loop_
 _symmetry_equiv_pos_site_id
 _symmetry_equiv_pos_as_xyz
  1  'x, y, z'
loop_
 _atom_site_type_symbol
 _atom_site_label
 _atom_site_symmetry_multiplicity
 _atom_site_fract_x
 _atom_site_fract_y
 _atom_site_fract_z
 _atom_site_occupancy
  C  C0  1  0.43909449  0.24980350  0.39231764  1
  C  C1  1  0.94809052  0.24352153  0.10786951  1
  C  C2  1  0.55198924  0.74326762  0.60792942  1
  C  C3  1  0.06083977  0.74995087  0.89224139  1
  N  N4  1  0.53289543  0.25508960  0.54457865  1
  N  N5  1  0.04621973  0.25365141  0.95400489  1
  N  N6  1  0.45349167  0.75379889  0.45422429  1
  N  N7  1  0.96708234  0.75506701  0.04460163  1
  H  H8  1  0.53156905  0.25702975  0.29316972  1
  H  H9  1  0.37194591  0.16787942  0.40759268  1
  H  H10  1  0.34894106  0.32131015  0.36831835  1
  H  H11  1  0.62342830  0.19130236  0.57202431  1
  H  H12  1  0.59564067  0.33330782  0.53257627  1
  H  H13  1  0.45352548  0.24684650  0.64500365  1
  H  H14  1  0.03786664  0.24514158  0.20716248  1
  H  H15  1  0.87811639  0.16257528  0.12876346  1
  H  H16  1  0.85994286  0.31593319  0.09622491  1
  H  H17  1  0.13744843  0.18955335  0.96378759  1
  H  H18  1  0.10782399  0.33153992  0.92333715  1
  H  H19  1  0.96877203  0.24733053  0.85566339  1
  H  H20  1  0.46241197  0.74433608  0.70756169  1
  H  H21  1  0.62224476  0.66243942  0.62805538  1
  H  H22  1  0.63988490  0.81578577  0.59662790  1
  H  H23  1  0.39136660  0.83154669  0.42439087  1
  H  H24  1  0.36262437  0.68950176  0.46371231  1
  H  H25  1  0.53075167  0.74813078  0.35547387  1
  H  H26  1  0.96837007  0.75766467  0.79302180  1
  H  H27  1  0.15135250  0.82125837  0.86862766  1
  H  H28  1  0.12753433  0.66789519  0.90711105  1
  H  H29  1  0.90491826  0.83344623  0.03303543  1
  H  H30  1  0.87605207  0.69156743  0.07158394  1
  H  H31  1  0.04641050  0.74622625  0.14513753  1
  Hf  Hf32  1  0.50984246  0.99828823  0.00146701  1
  Hf  Hf33  1  0.99028586  0.49831943  0.50142562  1
  Hg  Hg34  1  0.01489310  0.99904967  0.50021987  1
  Hg  Hg35  1  0.48548432  0.49895759  0.00026806  1
  Br  Br36  1  0.48556105  0.22142883  0.94782204  1
  Br  Br37  1  0.20589900  0.98068069  0.12963972  1
  Br  Br38  1  0.63957104  0.99940721  0.28590347  1
  Br  Br39  1  0.96897265  0.27501936  0.55353468  1
  Br  Br40  1  0.38307112  0.99702833  0.71617192  1
  Br  Br41  1  0.81440710  0.01721144  0.87232670  1
  Br  Br42  1  0.53112258  0.77496835  0.05376203  1
  Br  Br43  1  0.68573869  0.51716830  0.37233024  1
  Br  Br44  1  0.11735143  0.49724480  0.21620018  1
  Br  Br45  1  0.01433896  0.72147422  0.44785563  1
  Br  Br46  1  0.29419660  0.48069560  0.62971884  1
  Br  Br47  1  0.86064180  0.49943732  0.78591976  1
