# generated using pymatgen
data_HfH12PtC2(Br3N)2
_symmetry_space_group_name_H-M   'P 1'
_cell_length_a   7.62565573
_cell_length_b   11.63697538
_cell_length_c   7.93919149
_cell_angle_alpha   85.25443603
_cell_angle_beta   102.84634808
_cell_angle_gamma   92.68358845
_symmetry_Int_Tables_number   1
_chemical_formula_structural   HfH12PtC2(Br3N)2
_chemical_formula_sum   'Hf2 H24 Pt2 C4 Br12 N4'
_cell_volume   684.23842514
_cell_formula_units_Z   2
loop_
 _symmetry_equiv_pos_site_id
 _symmetry_equiv_pos_as_xyz
  1  'x, y, z'
loop_
 _atom_site_type_symbol
 _atom_site_label
 _atom_site_symmetry_multiplicity
 _atom_site_fract_x
 _atom_site_fract_y
 _atom_site_fract_z
 _atom_site_occupancy
  C  C0  1  0.45488989  0.24453100  0.42676699  1
  C  C1  1  0.02408185  0.23937306  0.07479587  1
  C  C2  1  0.51034126  0.75506402  0.61935684  1
  C  C3  1  0.01226076  0.74845351  0.85571103  1
  N  N4  1  0.54077181  0.25084230  0.61263866  1
  N  N5  1  0.04980506  0.24901279  0.89368149  1
  N  N6  1  0.44585440  0.75625499  0.42895293  1
  N  N7  1  0.94164983  0.75083980  0.01454882  1
  H  H8  1  0.56058574  0.25473430  0.35319917  1
  H  H9  1  0.38455895  0.16072382  0.40908543  1
  H  H10  1  0.36071002  0.31492706  0.38817023  1
  H  H11  1  0.63081857  0.18507571  0.65603883  1
  H  H12  1  0.60835380  0.32970293  0.63382920  1
  H  H13  1  0.44940406  0.24271344  0.69225733  1
  H  H14  1  0.15495886  0.22932158  0.16323313  1
  H  H15  1  0.93652506  0.16450351  0.09288434  1
  H  H16  1  0.96123019  0.31788507  0.09521861  1
  H  H17  1  0.07195497  0.17044994  0.85013416  1
  H  H18  1  0.15657762  0.30474658  0.87868267  1
  H  H19  1  0.93904263  0.28367202  0.80872614  1
  H  H20  1  0.39314294  0.75215876  0.67760640  1
  H  H21  1  0.58913402  0.67791505  0.66519600  1
  H  H22  1  0.59179504  0.83375003  0.64956886  1
  H  H23  1  0.36603664  0.82660792  0.38006644  1
  H  H24  1  0.36847289  0.68292384  0.39351936  1
  H  H25  1  0.54953237  0.76001813  0.36371887  1
  H  H26  1  0.89893233  0.74446304  0.74461690  1
  H  H27  1  0.09180529  0.82773484  0.84014874  1
  H  H28  1  0.09404870  0.67227612  0.86645171  1
  H  H29  1  0.85930314  0.82042806  0.00575703  1
  H  H30  1  0.86650636  0.67572422  0.03895124  1
  H  H31  1  0.04162302  0.75860068  0.12501060  1
  Hf  Hf32  1  0.49845954  0.99916740  0.02890208  1
  Hf  Hf33  1  0.00490640  0.50158497  0.39008715  1
  Pt  Pt34  1  0.99831894  0.01336386  0.52837333  1
  Pt  Pt35  1  0.72612909  0.49935348  0.15471212  1
  Br  Br36  1  0.49584597  0.22399537  0.01278539  1
  Br  Br37  1  0.21885773  0.97841505  0.16338370  1
  Br  Br38  1  0.70188017  0.99631879  0.34360174  1
  Br  Br39  1  0.95931801  0.28172387  0.46506588  1
  Br  Br40  1  0.29937793  0.00781741  0.69948957  1
  Br  Br41  1  0.76189234  0.01178884  0.86303279  1
  Br  Br42  1  0.50437277  0.77508912  0.03464592  1
  Br  Br43  1  0.66166829  0.51619349  0.44067943  1
  Br  Br44  1  0.22355775  0.51696733  0.18888776  1
  Br  Br45  1  0.01294465  0.72301029  0.43153184  1
  Br  Br46  1  0.25224423  0.48687727  0.68726589  1
  Br  Br47  1  0.77554185  0.48298359  0.86932802  1
