# generated using pymatgen
data_TlH12IrC2(Br3N)2
_symmetry_space_group_name_H-M   'P 1'
_cell_length_a   7.97840028
_cell_length_b   11.30995817
_cell_length_c   7.74961467
_cell_angle_alpha   85.58125686
_cell_angle_beta   89.99691795
_cell_angle_gamma   90.03915768
_symmetry_Int_Tables_number   1
_chemical_formula_structural   TlH12IrC2(Br3N)2
_chemical_formula_sum   'Tl2 H24 Ir2 C4 Br12 N4'
_cell_volume   697.21064032
_cell_formula_units_Z   2
loop_
 _symmetry_equiv_pos_site_id
 _symmetry_equiv_pos_as_xyz
  1  'x, y, z'
loop_
 _atom_site_type_symbol
 _atom_site_label
 _atom_site_symmetry_multiplicity
 _atom_site_fract_x
 _atom_site_fract_y
 _atom_site_fract_z
 _atom_site_occupancy
  C  C0  1  0.39547978  0.24984300  0.41111046  1
  C  C1  1  0.89643802  0.25020925  0.08973905  1
  C  C2  1  0.60451689  0.75016131  0.58890231  1
  C  C3  1  0.10356782  0.74979296  0.91027174  1
  N  N4  1  0.54599987  0.24702193  0.52294517  1
  N  N5  1  0.04643547  0.25299701  0.97714169  1
  N  N6  1  0.45399544  0.75298351  0.47706910  1
  N  N7  1  0.95357071  0.74700194  0.02286966  1
  H  H8  1  0.43543374  0.25271950  0.27583416  1
  H  H9  1  0.32333805  0.16898001  0.44246165  1
  H  H10  1  0.32126842  0.32781284  0.43512641  1
  H  H11  1  0.61869404  0.17416023  0.49986739  1
  H  H12  1  0.61851709  0.32282973  0.49599411  1
  H  H13  1  0.51513021  0.24082114  0.65454750  1
  H  H14  1  0.93710608  0.24735508  0.22481307  1
  H  H15  1  0.82188739  0.17226563  0.06620549  1
  H  H16  1  0.82439072  0.33111136  0.05883751  1
  H  H17  1  0.11884386  0.17715810  0.00377274  1
  H  H18  1  0.11941314  0.32582136  0.99971976  1
  H  H19  1  0.01492400  0.25913364  0.84566667  1
  H  H20  1  0.56456364  0.74728603  0.72417932  1
  H  H21  1  0.67872581  0.67219039  0.56488686  1
  H  H22  1  0.67666021  0.83102315  0.55755013  1
  H  H23  1  0.38130290  0.82584574  0.50014727  1
  H  H24  1  0.38147798  0.67717638  0.50401921  1
  H  H25  1  0.48486545  0.75918472  0.34546618  1
  H  H26  1  0.06289961  0.75264900  0.77519772  1
  H  H27  1  0.17811760  0.82773645  0.93380821  1
  H  H28  1  0.17561618  0.66889082  0.94117026  1
  H  H29  1  0.88115940  0.82283954  0.99623958  1
  H  H30  1  0.88059595  0.67417612  0.00029092  1
  H  H31  1  0.98508213  0.74086548  0.15434442  1
  Ir  Ir32  1  0.50000282  0.00000252  0.00000826  1
  Ir  Ir33  1  0.99999797  0.50000175  0.50000425  1
  Tl  Tl34  1  0.00000093  0.00000233  0.50000780  1
  Tl  Tl35  1  0.49999944  0.50000379  0.00000205  1
  Br  Br36  1  0.47442688  0.22187334  0.94418968  1
  Br  Br37  1  0.22155342  0.99880343  0.15540622  1
  Br  Br38  1  0.64784768  0.01337904  0.28677167  1
  Br  Br39  1  0.97379207  0.27816269  0.55621842  1
  Br  Br40  1  0.35215660  0.98662692  0.71324552  1
  Br  Br41  1  0.77845222  0.00119936  0.84461037  1
  Br  Br42  1  0.52557985  0.77813210  0.05582701  1
  Br  Br43  1  0.72178329  0.50106388  0.34421007  1
  Br  Br44  1  0.14822583  0.48670545  0.21339241  1
  Br  Br45  1  0.02620318  0.72184093  0.44379259  1
  Br  Br46  1  0.27821278  0.49893967  0.65579799  1
  Br  Br47  1  0.85177120  0.51329773  0.78661659  1
