# generated using pymatgen
data_H12IrAuC2(Br3N)2
_symmetry_space_group_name_H-M   'P 1'
_cell_length_a   8.27948439
_cell_length_b   9.62553630
_cell_length_c   8.42704044
_cell_angle_alpha   86.35287813
_cell_angle_beta   90.02670883
_cell_angle_gamma   90.01289607
_symmetry_Int_Tables_number   1
_chemical_formula_structural   H12IrAuC2(Br3N)2
_chemical_formula_sum   'H24 Ir2 Au2 C4 Br12 N4'
_cell_volume   670.22836453
_cell_formula_units_Z   2
loop_
 _symmetry_equiv_pos_site_id
 _symmetry_equiv_pos_as_xyz
  1  'x, y, z'
loop_
 _atom_site_type_symbol
 _atom_site_label
 _atom_site_symmetry_multiplicity
 _atom_site_fract_x
 _atom_site_fract_y
 _atom_site_fract_z
 _atom_site_occupancy
  C  C0  1  0.47482445  0.24264095  0.43072835  1
  C  C1  1  0.96248615  0.26136288  0.06135868  1
  C  C2  1  0.53728955  0.76172896  0.56097931  1
  C  C3  1  0.02524704  0.74325384  0.92957235  1
  N  N4  1  0.53677022  0.26312290  0.59253582  1
  N  N5  1  0.07634487  0.22548448  0.93484385  1
  N  N6  1  0.42415299  0.72543925  0.43390980  1
  N  N7  1  0.96278131  0.76238300  0.09144765  1
  H  H8  1  0.57732806  0.23415051  0.35003878  1
  H  H9  1  0.40153305  0.14808760  0.43366047  1
  H  H10  1  0.40183254  0.33290446  0.39044065  1
  H  H11  1  0.59181355  0.17462799  0.64580734  1
  H  H12  1  0.62198621  0.34225053  0.59153211  1
  H  H13  1  0.44509202  0.29075945  0.66831398  1
  H  H14  1  0.02714294  0.25191776  0.17450129  1
  H  H15  1  0.85970455  0.18984783  0.06022610  1
  H  H16  1  0.91945772  0.36794807  0.04006956  1
  H  H17  1  0.14144373  0.13641628  0.97031963  1
  H  H18  1  0.16071779  0.30307851  0.90757741  1
  H  H19  1  0.01779573  0.20609069  0.82999823  1
  H  H20  1  0.47189909  0.75303176  0.67367208  1
  H  H21  1  0.63986172  0.68995117  0.56104391  1
  H  H22  1  0.58084556  0.86812128  0.53924741  1
  H  H23  1  0.34046323  0.80329741  0.40520238  1
  H  H24  1  0.35833882  0.63681700  0.46957394  1
  H  H25  1  0.48341189  0.70511825  0.32980791  1
  H  H26  1  0.92305234  0.73551229  0.84827288  1
  H  H27  1  0.09845088  0.83376860  0.89060445  1
  H  H28  1  0.09848066  0.64871865  0.93171307  1
  H  H29  1  0.87771545  0.84158548  0.09098624  1
  H  H30  1  0.90741408  0.67359246  0.14358511  1
  H  H31  1  0.05419927  0.78918703  0.16803373  1
  Ir  Ir32  1  0.49210716  0.99674606  0.00119348  1
  Ir  Ir33  1  0.00787952  0.49672787  0.50107012  1
  Au  Au34  1  0.84832539  0.09580830  0.38767357  1
  Au  Au35  1  0.65160432  0.59593625  0.88718191  1
  Br  Br36  1  0.50039513  0.25561704  0.00371699  1
  Br  Br37  1  0.25112949  0.99303336  0.19029478  1
  Br  Br38  1  0.67306785  0.94517962  0.24018977  1
  Br  Br39  1  0.04617705  0.23327720  0.52125751  1
  Br  Br40  1  0.31321496  0.00943031  0.76280691  1
  Br  Br41  1  0.73327978  0.99980818  0.81926353  1
  Br  Br42  1  0.45370235  0.73326551  0.02058781  1
  Br  Br43  1  0.76636036  0.49935873  0.31939554  1
  Br  Br44  1  0.18653298  0.50902671  0.26262174  1
  Br  Br45  1  0.99966084  0.75562107  0.50278042  1
  Br  Br46  1  0.24907381  0.49355860  0.69005893  1
  Br  Br47  1  0.82763525  0.44548615  0.74059911  1
