# generated using pymatgen
data_HgH12PtC2(Br3N)2
_symmetry_space_group_name_H-M   'P 1'
_cell_length_a   7.31940856
_cell_length_b   11.25325754
_cell_length_c   8.30993897
_cell_angle_alpha   86.09626989
_cell_angle_beta   90.00079120
_cell_angle_gamma   89.99712073
_symmetry_Int_Tables_number   1
_chemical_formula_structural   HgH12PtC2(Br3N)2
_chemical_formula_sum   'Hg2 H24 Pt2 C4 Br12 N4'
_cell_volume   682.87825175
_cell_formula_units_Z   2
loop_
 _symmetry_equiv_pos_site_id
 _symmetry_equiv_pos_as_xyz
  1  'x, y, z'
loop_
 _atom_site_type_symbol
 _atom_site_label
 _atom_site_symmetry_multiplicity
 _atom_site_fract_x
 _atom_site_fract_y
 _atom_site_fract_z
 _atom_site_occupancy
  C  C0  1  0.45360691  0.24415478  0.39101245  1
  C  C1  1  0.95491840  0.25084676  0.10886580  1
  C  C2  1  0.54509264  0.75081886  0.60882850  1
  C  C3  1  0.04643155  0.74418583  0.89102298  1
  N  N4  1  0.52098578  0.25286797  0.55832479  1
  N  N5  1  0.02462968  0.25626319  0.94073468  1
  N  N6  1  0.47531330  0.75635923  0.44071416  1
  N  N7  1  0.97902539  0.75277296  0.05834819  1
  H  H8  1  0.57054109  0.24974743  0.30920388  1
  H  H9  1  0.38352312  0.15892328  0.38306738  1
  H  H10  1  0.36016691  0.31851506  0.36284172  1
  H  H11  1  0.61385732  0.18650156  0.59155016  1
  H  H12  1  0.58610818  0.33367600  0.56906783  1
  H  H13  1  0.41602720  0.24708994  0.64179553  1
  H  H14  1  0.07124852  0.25198751  0.19104050  1
  H  H15  1  0.87787735  0.16807987  0.13038121  1
  H  H16  1  0.86742177  0.32815802  0.12387168  1
  H  H17  1  0.12110780  0.19041160  0.92700954  1
  H  H18  1  0.08666831  0.33698549  0.90824200  1
  H  H19  1  0.92135184  0.24489045  0.85811882  1
  H  H20  1  0.42880561  0.75208204  0.69103388  1
  H  H21  1  0.62191724  0.66796059  0.63029527  1
  H  H22  1  0.63280753  0.82802480  0.62384174  1
  H  H23  1  0.41347794  0.83715772  0.40829012  1
  H  H24  1  0.37863345  0.69062911  0.42698310  1
  H  H25  1  0.57851510  0.74489129  0.35805702  1
  H  H26  1  0.92948260  0.74964314  0.80922656  1
  H  H27  1  0.13964003  0.81867477  0.86287613  1
  H  H28  1  0.11678202  0.65905042  0.88303338  1
  H  H29  1  0.91365346  0.83348240  0.06915243  1
  H  H30  1  0.88635552  0.68626887  0.09154142  1
  H  H31  1  0.08399696  0.74709173  0.14180595  1
  Pt  Pt32  1  0.50536102  0.99712601  0.00085422  1
  Pt  Pt33  1  0.99463879  0.49713573  0.50097083  1
  Hg  Hg34  1  0.00588980  0.99755113  0.50090407  1
  Hg  Hg35  1  0.49410924  0.49752599  0.00107194  1
  Br  Br36  1  0.48329696  0.21616857  0.96338406  1
  Br  Br37  1  0.22448262  0.98901553  0.16477781  1
  Br  Br38  1  0.73267008  0.99259736  0.32035543  1
  Br  Br39  1  0.97746457  0.27751329  0.53611555  1
  Br  Br40  1  0.28103264  0.00344615  0.67894802  1
  Br  Br41  1  0.78847704  0.00750616  0.83922144  1
  Br  Br42  1  0.52255651  0.77750563  0.03603437  1
  Br  Br43  1  0.71150259  0.50752988  0.33936663  1
  Br  Br44  1  0.21899027  0.50344026  0.17912809  1
  Br  Br45  1  0.01673530  0.71617326  0.46345777  1
  Br  Br46  1  0.27547477  0.48901866  0.66495847  1
  Br  Br47  1  0.76737103  0.49263198  0.82056912  1
