# generated using pymatgen
data_BiH12AuC2(Br3N)2
_symmetry_space_group_name_H-M   'P 1'
_cell_length_a   7.89284362
_cell_length_b   11.55832482
_cell_length_c   7.75463222
_cell_angle_alpha   91.10919346
_cell_angle_beta   90.03327231
_cell_angle_gamma   89.98506122
_symmetry_Int_Tables_number   1
_chemical_formula_structural   BiH12AuC2(Br3N)2
_chemical_formula_sum   'Bi2 H24 Au2 C4 Br12 N4'
_cell_volume   707.30727602
_cell_formula_units_Z   2
loop_
 _symmetry_equiv_pos_site_id
 _symmetry_equiv_pos_as_xyz
  1  'x, y, z'
loop_
 _atom_site_type_symbol
 _atom_site_label
 _atom_site_symmetry_multiplicity
 _atom_site_fract_x
 _atom_site_fract_y
 _atom_site_fract_z
 _atom_site_occupancy
  C  C0  1  0.39412243  0.25059535  0.41206426  1
  C  C1  1  0.89522063  0.24955784  0.08880288  1
  C  C2  1  0.60587512  0.74940923  0.58794713  1
  C  C3  1  0.10478452  0.75044442  0.91121040  1
  N  N4  1  0.54617682  0.25097720  0.52383092  1
  N  N5  1  0.04661498  0.24902079  0.97630103  1
  N  N6  1  0.45382006  0.74902794  0.47618139  1
  N  N7  1  0.95339188  0.75097749  0.02371457  1
  H  H8  1  0.43488772  0.24889303  0.27731766  1
  H  H9  1  0.32078259  0.17299241  0.43825844  1
  H  H10  1  0.31943618  0.32816926  0.44018686  1
  H  H11  1  0.61877499  0.17786819  0.49760482  1
  H  H12  1  0.62027470  0.32307432  0.49996352  1
  H  H13  1  0.51500242  0.25163057  0.65482818  1
  H  H14  1  0.93677838  0.25130531  0.22333896  1
  H  H15  1  0.82031505  0.17202056  0.06115661  1
  H  H16  1  0.82176912  0.32721144  0.06292780  1
  H  H17  1  0.12078103  0.17686934  0.99991246  1
  H  H18  1  0.11939870  0.32208630  0.00213519  1
  H  H19  1  0.01472713  0.24833242  0.84545426  1
  H  H20  1  0.56511052  0.75111322  0.72269414  1
  H  H21  1  0.68055964  0.67183451  0.55982565  1
  H  H22  1  0.67921635  0.82701129  0.56175128  1
  H  H23  1  0.38122256  0.82213702  0.50240775  1
  H  H24  1  0.37972187  0.67693087  0.50004900  1
  H  H25  1  0.48499424  0.74837443  0.34518388  1
  H  H26  1  0.06322462  0.74869887  0.77667496  1
  H  H27  1  0.17968886  0.82798193  0.93885876  1
  H  H28  1  0.17823791  0.67279103  0.93708094  1
  H  H29  1  0.87922234  0.82312757  0.00010588  1
  H  H30  1  0.88061089  0.67791077  0.99787991  1
  H  H31  1  0.98528133  0.75166555  0.15456098  1
  Au  Au32  1  0.50000167  0.00000405  0.00000822  1
  Au  Au33  1  0.99999563  0.50000115  0.49999567  1
  Bi  Bi34  1  0.00000060  0.00000250  0.50000893  1
  Bi  Bi35  1  0.49999972  0.50000360  0.99999980  1
  Br  Br36  1  0.47432591  0.25382666  0.94473746  1
  Br  Br37  1  0.19309327  0.01115087  0.18056931  1
  Br  Br38  1  0.68328985  0.00686429  0.31170675  1
  Br  Br39  1  0.97363951  0.24613207  0.55578296  1
  Br  Br40  1  0.31671266  0.99314171  0.68830990  1
  Br  Br41  1  0.80691121  0.98885044  0.81944826  1
  Br  Br42  1  0.52567954  0.74617984  0.05527518  1
  Br  Br43  1  0.69320041  0.48872833  0.31961734  1
  Br  Br44  1  0.18349543  0.49323589  0.18811447  1
  Br  Br45  1  0.02635870  0.75387286  0.44423353  1
  Br  Br46  1  0.30679094  0.51127541  0.68038842  1
  Br  Br47  1  0.81650312  0.50676813  0.81188993  1
