# generated using pymatgen
data_GaBH12C2(I3N)2
_symmetry_space_group_name_H-M   'P 1'
_cell_length_a   8.95486495
_cell_length_b   10.20622532
_cell_length_c   9.06956142
_cell_angle_alpha   89.70685881
_cell_angle_beta   89.10478182
_cell_angle_gamma   90.21706851
_symmetry_Int_Tables_number   1
_chemical_formula_structural   GaBH12C2(I3N)2
_chemical_formula_sum   'Ga2 B2 H24 C4 I12 N4'
_cell_volume   828.79768721
_cell_formula_units_Z   2
loop_
 _symmetry_equiv_pos_site_id
 _symmetry_equiv_pos_as_xyz
  1  'x, y, z'
loop_
 _atom_site_type_symbol
 _atom_site_label
 _atom_site_symmetry_multiplicity
 _atom_site_fract_x
 _atom_site_fract_y
 _atom_site_fract_z
 _atom_site_occupancy
  C  C0  1  0.46905775  0.25032291  0.45179529  1
  C  C1  1  0.95630402  0.24309583  0.05830702  1
  C  C2  1  0.53246776  0.75299919  0.55827793  1
  C  C3  1  0.03060756  0.74350120  0.93275711  1
  N  N4  1  0.56704920  0.24832525  0.58274438  1
  N  N5  1  0.04825708  0.26162351  0.92224961  1
  N  N6  1  0.44317559  0.75211454  0.42050888  1
  N  N7  1  0.93659233  0.75796058  0.06793259  1
  H  H8  1  0.53837112  0.26018944  0.35190249  1
  H  H9  1  0.40630504  0.15805571  0.44813031  1
  H  H10  1  0.39109991  0.33235704  0.46260321  1
  H  H11  1  0.64207466  0.17039406  0.58108472  1
  H  H12  1  0.62957015  0.33376927  0.59367144  1
  H  H13  1  0.50447223  0.24028485  0.67959789  1
  H  H14  1  0.02922570  0.23908975  0.15376609  1
  H  H15  1  0.89302776  0.15164105  0.04921896  1
  H  H16  1  0.87961149  0.32595562  0.06724206  1
  H  H17  1  0.11303587  0.18008491  0.89718562  1
  H  H18  1  0.12067132  0.34177217  0.92616701  1
  H  H19  1  0.98021437  0.27775501  0.83245174  1
  H  H20  1  0.45715705  0.73581871  0.65261489  1
  H  H21  1  0.61570988  0.67478428  0.55144019  1
  H  H22  1  0.58889618  0.84800982  0.56638344  1
  H  H23  1  0.36190893  0.82401812  0.42049994  1
  H  H24  1  0.38717297  0.66415344  0.40573949  1
  H  H25  1  0.51002449  0.76965040  0.32749212  1
  H  H26  1  0.95712085  0.73735086  0.83802273  1
  H  H27  1  0.10349777  0.82928200  0.92236215  1
  H  H28  1  0.09718201  0.65423022  0.94203490  1
  H  H29  1  0.86856864  0.84002113  0.06429142  1
  H  H30  1  0.86756177  0.67693135  0.08552083  1
  H  H31  1  0.00150578  0.76779454  0.16077215  1
  B  B32  1  0.39040454  0.99743483  0.99541407  1
  B  B33  1  0.99635935  0.50154677  0.38285489  1
  Ga  Ga34  1  0.99920585  0.99458936  0.50252859  1
  Ga  Ga35  1  0.50310019  0.49197346  0.99827988  1
  I  I36  1  0.52473596  0.18168429  0.02314101  1
  I  I37  1  0.22026026  0.99063058  0.18573063  1
  I  I38  1  0.75172860  0.98944560  0.31577288  1
  I  I39  1  0.01367323  0.31026745  0.50655669  1
  I  I40  1  0.28710513  0.00883858  0.76660610  1
  I  I41  1  0.81373501  0.01282091  0.75716508  1
  I  I42  1  0.52057615  0.80770215  0.00778839  1
  I  I43  1  0.76237952  0.50783115  0.28529158  1
  I  I44  1  0.18957632  0.50455543  0.21465428  1
  I  I45  1  0.02930746  0.68525520  0.51665857  1
  I  I46  1  0.31060514  0.47969171  0.75774429  1
  I  I47  1  0.75977376  0.49247408  0.80934107  1
