# generated using pymatgen
data_HgH12PbC2(Br3N)2
_symmetry_space_group_name_H-M   'P 1'
_cell_length_a   8.02516752
_cell_length_b   11.59432062
_cell_length_c   7.84786184
_cell_angle_alpha   89.67964544
_cell_angle_beta   90.00973037
_cell_angle_gamma   90.00271568
_symmetry_Int_Tables_number   1
_chemical_formula_structural   HgH12PbC2(Br3N)2
_chemical_formula_sum   'Hg2 H24 Pb2 C4 Br12 N4'
_cell_volume   730.20359469
_cell_formula_units_Z   2
loop_
 _symmetry_equiv_pos_site_id
 _symmetry_equiv_pos_as_xyz
  1  'x, y, z'
loop_
 _atom_site_type_symbol
 _atom_site_label
 _atom_site_symmetry_multiplicity
 _atom_site_fract_x
 _atom_site_fract_y
 _atom_site_fract_z
 _atom_site_occupancy
  C  C0  1  0.39232194  0.25031803  0.41200606  1
  C  C1  1  0.89349587  0.24987898  0.08911161  1
  C  C2  1  0.60767504  0.74968617  0.58800723  1
  C  C3  1  0.10651043  0.75012195  0.91090204  1
  N  N4  1  0.54135192  0.24991874  0.52328874  1
  N  N5  1  0.04182403  0.25011551  0.97693562  1
  N  N6  1  0.45864453  0.75008578  0.47672553  1
  N  N7  1  0.95818365  0.74988199  0.02307992  1
  H  H8  1  0.43301898  0.24992942  0.27902725  1
  H  H9  1  0.31985709  0.17266038  0.43862273  1
  H  H10  1  0.31891393  0.32745216  0.43813720  1
  H  H11  1  0.61297749  0.17743232  0.49776568  1
  H  H12  1  0.61395498  0.32239439  0.49870140  1
  H  H13  1  0.51043690  0.24893269  0.65258443  1
  H  H14  1  0.93505312  0.25030834  0.22182522  1
  H  H15  1  0.81977755  0.17277917  0.06355772  1
  H  H16  1  0.82099904  0.32759300  0.06292245  1
  H  H17  1  0.11443434  0.17759320  0.00118230  1
  H  H18  1  0.11370525  0.32255988  0.00197637  1
  H  H19  1  0.01017068  0.25107309  0.84780916  1
  H  H20  1  0.56697909  0.75007680  0.72098628  1
  H  H21  1  0.68108147  0.67255104  0.56187729  1
  H  H22  1  0.68014162  0.82734276  0.56138860  1
  H  H23  1  0.38701922  0.82257216  0.50224909  1
  H  H24  1  0.38604143  0.67760987  0.50131262  1
  H  H25  1  0.48955923  0.75107221  0.34742954  1
  H  H26  1  0.06495174  0.74969467  0.77818874  1
  H  H27  1  0.18022872  0.82722146  0.93645872  1
  H  H28  1  0.17900795  0.67240760  0.93708680  1
  H  H29  1  0.88557039  0.82240310  0.99883576  1
  H  H30  1  0.88630481  0.67743667  0.99803872  1
  H  H31  1  0.98983831  0.74892425  0.15220601  1
  Hg  Hg32  1  0.50000203  0.00000675  0.00000822  1
  Hg  Hg33  1  0.99999222  0.50000139  0.49999298  1
  Pb  Pb34  1  0.00000101  0.00000281  0.50001042  1
  Pb  Pb35  1  0.49999873  0.50000759  0.99999315  1
  Br  Br36  1  0.47022159  0.24561344  0.94036488  1
  Br  Br37  1  0.19063313  0.01100754  0.16935505  1
  Br  Br38  1  0.67240539  0.01381375  0.31590517  1
  Br  Br39  1  0.96960998  0.25438999  0.56022180  1
  Br  Br40  1  0.32760120  0.98619401  0.68411116  1
  Br  Br41  1  0.80937309  0.98899336  0.83066359  1
  Br  Br42  1  0.52978414  0.75439767  0.05965085  1
  Br  Br43  1  0.69062608  0.48880386  0.33058914  1
  Br  Br44  1  0.17253017  0.48635247  0.18414478  1
  Br  Br45  1  0.03038635  0.74561490  0.43979372  1
  Br  Br46  1  0.30936043  0.51119959  0.66940849  1
  Br  Br47  1  0.82746748  0.51365138  0.81585639  1
