# generated using pymatgen
data_TlBiH12C2(Br3N)2
_symmetry_space_group_name_H-M   'P 1'
_cell_length_a   8.53099776
_cell_length_b   11.89245610
_cell_length_c   7.91831311
_cell_angle_alpha   92.89581706
_cell_angle_beta   89.93786930
_cell_angle_gamma   90.04022973
_symmetry_Int_Tables_number   1
_chemical_formula_structural   TlBiH12C2(Br3N)2
_chemical_formula_sum   'Tl2 Bi2 H24 C4 Br12 N4'
_cell_volume   802.32214911
_cell_formula_units_Z   2
loop_
 _symmetry_equiv_pos_site_id
 _symmetry_equiv_pos_as_xyz
  1  'x, y, z'
loop_
 _atom_site_type_symbol
 _atom_site_label
 _atom_site_symmetry_multiplicity
 _atom_site_fract_x
 _atom_site_fract_y
 _atom_site_fract_z
 _atom_site_occupancy
  C  C0  1  0.42038907  0.24655374  0.43046096  1
  C  C1  1  0.91892930  0.25352383  0.06832345  1
  C  C2  1  0.57960921  0.75344585  0.56955572  1
  C  C3  1  0.08107099  0.74648171  0.93168819  1
  N  N4  1  0.57468041  0.25545938  0.51729237  1
  N  N5  1  0.07274060  0.24443412  0.98020426  1
  N  N6  1  0.42532114  0.74454130  0.48271753  1
  N  N7  1  0.92726309  0.75557056  0.01981339  1
  H  H8  1  0.44038066  0.24479152  0.29366947  1
  H  H9  1  0.36247872  0.16910618  0.46584302  1
  H  H10  1  0.34996101  0.32019634  0.46955707  1
  H  H11  1  0.64431539  0.18609570  0.48240483  1
  H  H12  1  0.63248990  0.32778365  0.48192311  1
  H  H13  1  0.56139402  0.25913963  0.64855921  1
  H  H14  1  0.93966975  0.25547360  0.20494929  1
  H  H15  1  0.84812727  0.17987999  0.03005754  1
  H  H16  1  0.86101006  0.33094661  0.03321777  1
  H  H17  1  0.13052656  0.17208877  0.01508512  1
  H  H18  1  0.14277293  0.31372481  0.01458692  1
  H  H19  1  0.05882459  0.24078494  0.84903272  1
  H  H20  1  0.55961235  0.75521327  0.70634592  1
  H  H21  1  0.65003505  0.67980032  0.53046842  1
  H  H22  1  0.63752542  0.83089063  0.53416992  1
  H  H23  1  0.35568808  0.81390741  0.51759638  1
  H  H24  1  0.36750670  0.67221962  0.51808911  1
  H  H25  1  0.43861292  0.74085644  0.35145071  1
  H  H26  1  0.06032598  0.74453230  0.79506210  1
  H  H27  1  0.15187449  0.82012645  0.96995099  1
  H  H28  1  0.13899241  0.66905948  0.96679075  1
  H  H29  1  0.86947609  0.82791681  0.98493649  1
  H  H30  1  0.85722967  0.68628136  0.98543107  1
  H  H31  1  0.94118335  0.75921855  0.15098397  1
  Tl  Tl32  1  0.50000099  0.00000083  0.00000726  1
  Tl  Tl33  1  0.00000125  0.49999966  0.50000179  1
  Bi  Bi34  1  0.00000154  0.00000083  0.50000778  1
  Bi  Bi35  1  0.49999940  0.50000247  0.00000306  1
  Br  Br36  1  0.49035859  0.26081705  0.93321420  1
  Br  Br37  1  0.17180865  0.01908058  0.19179055  1
  Br  Br38  1  0.70743699  0.01479157  0.32857223  1
  Br  Br39  1  0.98970061  0.23926858  0.56479567  1
  Br  Br40  1  0.29256685  0.98520937  0.67144125  1
  Br  Br41  1  0.82819611  0.98092527  0.80822629  1
  Br  Br42  1  0.50964635  0.73918650  0.06680334  1
  Br  Br43  1  0.67231767  0.48157399  0.30770670  1
  Br  Br44  1  0.20712586  0.48394589  0.17114108  1
  Br  Br45  1  0.01030189  0.76073296  0.43521833  1
  Br  Br46  1  0.32768173  0.51842649  0.69229763  1
  Br  Br47  1  0.79286204  0.51607136  0.82885167  1
