# generated using pymatgen
data_BeH6CNCl3
_symmetry_space_group_name_H-M   'P 1'
_cell_length_a   6.03318736
_cell_length_b   11.18837177
_cell_length_c   8.74581306
_cell_angle_alpha   90.00756742
_cell_angle_beta   89.95682728
_cell_angle_gamma   89.98858872
_symmetry_Int_Tables_number   1
_chemical_formula_structural   BeH6CNCl3
_chemical_formula_sum   'Be4 H24 C4 N4 Cl12'
_cell_volume   590.35569242
_cell_formula_units_Z   4
loop_
 _symmetry_equiv_pos_site_id
 _symmetry_equiv_pos_as_xyz
  1  'x, y, z'
loop_
 _atom_site_type_symbol
 _atom_site_label
 _atom_site_symmetry_multiplicity
 _atom_site_fract_x
 _atom_site_fract_y
 _atom_site_fract_z
 _atom_site_occupancy
  C  C0  1  0.18494522  0.27109370  0.34997697  1
  C  C1  1  0.68514765  0.27120993  0.14924701  1
  C  C2  1  0.81505612  0.77117753  0.64999017  1
  C  C3  1  0.31479499  0.77129253  0.85072216  1
  N  N4  1  0.31857058  0.25895401  0.49062789  1
  N  N5  1  0.81711398  0.25886760  0.00775702  1
  N  N6  1  0.68138781  0.75898241  0.50936744  1
  N  N7  1  0.18308880  0.75880587  0.99229677  1
  H  H8  1  0.29256727  0.26801676  0.24976854  1
  H  H9  1  0.06747048  0.19679353  0.34649510  1
  H  H10  1  0.09803635  0.35694275  0.35296494  1
  H  H11  1  0.39431615  0.17576553  0.49883812  1
  H  H12  1  0.43830381  0.32558886  0.49717230  1
  H  H13  1  0.21837761  0.26492115  0.58695729  1
  H  H14  1  0.79409137  0.26890630  0.24868250  1
  H  H15  1  0.56851890  0.19656717  0.15409051  1
  H  H16  1  0.59732485  0.35679133  0.14633230  1
  H  H17  1  0.89305846  0.17570909  0.99941471  1
  H  H18  1  0.93655022  0.32555819  1.00027754  1
  H  H19  1  0.71570864  0.26450904  0.91210329  1
  H  H20  1  0.70746078  0.76823760  0.75021553  1
  H  H21  1  0.93249969  0.69684120  0.65353297  1
  H  H22  1  0.90199952  0.85699646  0.64690298  1
  H  H23  1  0.56162269  0.82562276  0.50281965  1
  H  H24  1  0.60566487  0.67579483  0.50121478  1
  H  H25  1  0.78153102  0.76488436  0.41301354  1
  H  H26  1  0.20570477  0.76901157  0.75136882  1
  H  H27  1  0.40243947  0.85690420  0.85368834  1
  H  H28  1  0.43157531  0.69669255  0.84568426  1
  H  H29  1  0.06348041  0.82543142  -0.00006867  1
  H  H30  1  0.10736606  0.67560680  0.00061040  1
  H  H31  1  0.28462805  0.76446243  0.08787305  1
  Be  Be32  1  0.70231838  0.91840506  0.14194742  1
  Be  Be33  1  0.79793254  0.41838480  0.64089455  1
  Be  Be34  1  0.20198225  0.91837611  0.35914731  1
  Be  Be35  1  0.29765239  0.41838983  0.85809086  1
  Cl  Cl36  1  0.31154815  0.24273897  0.85990927  1
  Cl  Cl37  1  0.38159248  0.98909984  0.17143119  1
  Cl  Cl38  1  0.88129860  0.98903820  0.32965877  1
  Cl  Cl39  1  0.81175595  0.24277355  0.63902929  1
  Cl  Cl40  1  0.33409895  0.98169545  0.55077576  1
  Cl  Cl41  1  0.83514590  0.98144937  0.95028953  1
  Cl  Cl42  1  0.68854886  0.74274539  0.14006271  1
  Cl  Cl43  1  0.66578026  0.48168771  0.44927653  1
  Cl  Cl44  1  0.16483169  0.48143615  0.04980519  1
  Cl  Cl45  1  0.18827879  0.74276578  0.36098237  1
  Cl  Cl46  1  0.11857068  0.48903835  0.67042671  1
  Cl  Cl47  1  0.61828597  0.48911422  0.82863091  1
