# generated using pymatgen
data_BH6CNCl3
_symmetry_space_group_name_H-M   'P 1'
_cell_length_a   7.00374986
_cell_length_b   10.00342467
_cell_length_c   9.13496353
_cell_angle_alpha   81.90212055
_cell_angle_beta   92.54725136
_cell_angle_gamma   93.02834291
_symmetry_Int_Tables_number   1
_chemical_formula_structural   BH6CNCl3
_chemical_formula_sum   'B4 H24 C4 N4 Cl12'
_cell_volume   632.29933739
_cell_formula_units_Z   4
loop_
 _symmetry_equiv_pos_site_id
 _symmetry_equiv_pos_as_xyz
  1  'x, y, z'
loop_
 _atom_site_type_symbol
 _atom_site_label
 _atom_site_symmetry_multiplicity
 _atom_site_fract_x
 _atom_site_fract_y
 _atom_site_fract_z
 _atom_site_occupancy
  C  C0  1  0.43787733  0.17419441  0.42224270  1
  C  C1  1  0.05950504  0.32614288  0.01225082  1
  C  C2  1  0.45153739  0.74269881  0.42400473  1
  C  C3  1  0.00802470  0.71672986  0.04705206  1
  N  N4  1  0.46695859  0.23844015  0.55877058  1
  N  N5  1  0.21661826  0.34464431  0.90576567  1
  N  N6  1  0.39809965  0.71191754  0.27388927  1
  N  N7  1  0.02644003  0.74863911  0.19973492  1
  H  H8  1  0.50038439  0.24081354  0.32939896  1
  H  H9  1  0.50772183  0.07787534  0.43924276  1
  H  H10  1  0.28427688  0.15828532  0.40020508  1
  H  H11  1  0.61081084  0.25680991  0.58535902  1
  H  H12  1  0.40264623  0.33054814  0.54692768  1
  H  H13  1  0.40762511  0.17681518  0.64860486  1
  H  H14  1  0.12005939  0.33327436  0.12352444  1
  H  H15  1  0.98688319  0.22681858  0.00941661  1
  H  H16  1  0.95751373  0.40539069  0.98017166  1
  H  H17  1  0.30301387  0.26310557  0.92704979  1
  H  H18  1  0.24959242  0.57531438  0.89362515  1
  H  H19  1  0.15505355  0.34074260  0.80133399  1
  H  H20  1  0.36155182  0.67974272  0.50416476  1
  H  H21  1  0.60162146  0.72193024  0.45210413  1
  H  H22  1  0.42790127  0.84951350  0.42758145  1
  H  H23  1  0.10088727  0.94696666  0.51093383  1
  H  H24  1  0.42501022  0.61413979  0.26069624  1
  H  H25  1  0.47136184  0.77345332  0.19243926  1
  H  H26  1  0.86677444  0.73634437  0.99393877  1
  H  H27  1  0.11664090  0.77691029  0.98013494  1
  H  H28  1  0.03604674  0.60993983  0.04857238  1
  H  H29  1  0.99605749  0.84715928  0.20248392  1
  H  H30  1  0.93271798  0.68839575  0.26591052  1
  H  H31  1  0.24054024  0.72618074  0.24823980  1
  B  B32  1  0.43493395  0.00767390  0.94776264  1
  B  B33  1  0.95991712  0.44986988  0.49967600  1
  B  B34  1  0.93539394  0.96804754  0.49014335  1
  B  B35  1  0.34694249  0.47957470  0.90352988  1
  Cl  Cl36  1  0.62512095  0.14177507  0.91123210  1
  Cl  Cl37  1  0.32246486  0.02596421  0.12506117  1
  Cl  Cl38  1  0.85460601  0.04032010  0.31397153  1
  Cl  Cl39  1  0.93032132  0.28212533  0.62235304  1
  Cl  Cl40  1  0.24265534  0.02866325  0.79619367  1
  Cl  Cl41  1  0.77907669  0.92462828  0.63257021  1
  Cl  Cl42  1  0.53138936  0.83891609  0.95275320  1
  Cl  Cl43  1  0.74418649  0.47431379  0.37577577  1
  Cl  Cl44  1  0.16690916  0.43722999  0.38134125  1
  Cl  Cl45  1  0.99848396  0.58786208  0.61099988  1
  Cl  Cl46  1  0.50342634  0.49210002  0.74229968  1
  Cl  Cl47  1  0.49644166  0.46113689  0.07886251  1
