# generated using pymatgen
data_H6C2NCl3
_symmetry_space_group_name_H-M   'P 1'
_cell_length_a   6.69028974
_cell_length_b   10.60292945
_cell_length_c   8.08402699
_cell_angle_alpha   75.19306085
_cell_angle_beta   89.99873841
_cell_angle_gamma   89.99782376
_symmetry_Int_Tables_number   1
_chemical_formula_structural   H6C2NCl3
_chemical_formula_sum   'H24 C8 N4 Cl12'
_cell_volume   554.41095130
_cell_formula_units_Z   4
loop_
 _symmetry_equiv_pos_site_id
 _symmetry_equiv_pos_as_xyz
  1  'x, y, z'
loop_
 _atom_site_type_symbol
 _atom_site_label
 _atom_site_symmetry_multiplicity
 _atom_site_fract_x
 _atom_site_fract_y
 _atom_site_fract_z
 _atom_site_occupancy
  C  C0  1  0.50912355  0.21936243  0.41916947  1
  C  C1  1  0.00837476  0.28746416  0.08647276  1
  C  C2  1  0.49158436  0.78741698  0.58647085  1
  C  C3  1  0.99088452  0.71925065  0.91936617  1
  N  N4  1  0.50159441  0.28296307  0.56244277  1
  N  N5  1  0.00219079  0.21962747  0.94709171  1
  N  N6  1  0.49771740  0.71966514  0.44700196  1
  N  N7  1  0.99854740  0.78306821  0.06242581  1
  H  H8  1  0.66027083  0.18258664  0.41078149  1
  H  H9  1  0.40182870  0.13895494  0.44425414  1
  H  H10  1  0.47074138  0.29168674  0.30089837  1
  H  H11  1  0.53690192  0.21851979  0.67827590  1
  H  H12  1  0.60064941  0.36029415  0.54531254  1
  H  H13  1  0.36018700  0.31898616  0.57551181  1
  H  H14  1  0.15931161  0.32452806  0.09398969  1
  H  H15  1  0.96912511  0.21766870  0.20645755  1
  H  H16  1  0.90132630  0.36780576  0.05717065  1
  H  H17  1  0.10863361  0.14650626  0.96398965  1
  H  H18  1  0.02787853  0.28332144  0.82851084  1
  H  H19  1  0.86392769  0.17708531  0.94127960  1
  H  H20  1  0.34039267  0.82389083  0.59464180  1
  H  H21  1  0.53187425  0.71773469  0.70625426  1
  H  H22  1  0.59789464  0.86816555  0.55677120  1
  H  H23  1  0.47133438  0.78333648  0.32853895  1
  H  H24  1  0.39170887  0.64626643  0.46417069  1
  H  H25  1  0.63618939  0.67749549  0.44075370  1
  H  H26  1  0.83993216  0.68198760  0.91158960  1
  H  H27  1  0.02840116  0.79158343  0.80086203  1
  H  H28  1  0.09875217  0.63916643  0.94422096  1
  H  H29  1  0.89908155  0.86017040  0.04544678  1
  H  H30  1  0.96393666  0.71867267  0.17847220  1
  H  H31  1  0.13981939  0.81946821  0.07499276  1
  C  C32  1  0.49427277  0.97523398  0.94325122  1
  C  C33  1  0.00573313  0.47524199  0.44333711  1
  C  C34  1  0.99071438  0.94685369  0.40724979  1
  C  C35  1  0.50922481  0.44684215  0.90723104  1
  Cl  Cl36  1  0.51050507  0.26170969  0.97304618  1
  Cl  Cl37  1  0.21648282  0.98421374  0.26058809  1
  Cl  Cl38  1  0.77505551  0.98513854  0.25152318  1
  Cl  Cl39  1  0.00986247  0.28955192  0.51876667  1
  Cl  Cl40  1  0.27463535  0.01190421  0.79170167  1
  Cl  Cl41  1  0.71756221  0.00808305  0.79217554  1
  Cl  Cl42  1  0.49024547  0.78955518  0.01865890  1
  Cl  Cl43  1  0.78242773  0.50805330  0.29231255  1
  Cl  Cl44  1  0.22532661  0.51194075  0.29175205  1
  Cl  Cl45  1  0.98934952  0.76172254  0.47305483  1
  Cl  Cl46  1  0.28355226  0.48425137  0.76048541  1
  Cl  Cl47  1  0.72495706  0.48508193  0.75157369  1
