# generated using pymatgen
data_H6CN2Cl3
_symmetry_space_group_name_H-M   'P 1'
_cell_length_a   8.68390890
_cell_length_b   10.05814889
_cell_length_c   8.07758553
_cell_angle_alpha   121.79905948
_cell_angle_beta   90.08416748
_cell_angle_gamma   89.92634267
_symmetry_Int_Tables_number   1
_chemical_formula_structural   H6CN2Cl3
_chemical_formula_sum   'H24 C4 N8 Cl12'
_cell_volume   599.62930922
_cell_formula_units_Z   4
loop_
 _symmetry_equiv_pos_site_id
 _symmetry_equiv_pos_as_xyz
  1  'x, y, z'
loop_
 _atom_site_type_symbol
 _atom_site_label
 _atom_site_symmetry_multiplicity
 _atom_site_fract_x
 _atom_site_fract_y
 _atom_site_fract_z
 _atom_site_occupancy
  C  C0  1  0.55773709  0.30097026  0.46445243  1
  C  C1  1  0.83599776  0.18914967  0.02589788  1
  C  C2  1  0.66532979  0.68871691  0.52504600  1
  C  C3  1  0.94187029  0.80068504  0.96383045  1
  N  N4  1  0.53936955  0.29544397  0.64280377  1
  N  N5  1  0.92932147  0.21825851  0.89536028  1
  N  N6  1  0.57086550  0.71835528  0.39547198  1
  N  N7  1  0.96002361  0.79540926  0.14243544  1
  H  H8  1  0.67607357  0.26721480  0.41242986  1
  H  H9  1  0.47776255  0.21767085  0.35334274  1
  H  H10  1  0.53100979  0.41844037  0.49733574  1
  H  H11  1  0.58829652  0.19057490  0.61613588  1
  H  H12  1  0.59789423  0.38559066  0.76396517  1
  H  H13  1  0.42390801  0.29713404  0.67732926  1
  H  H14  1  0.89051071  0.24580572  0.16966718  1
  H  H15  1  0.82719753  0.06294066  0.96302247  1
  H  H16  1  0.72059532  0.23778910  0.03822444  1
  H  H17  1  0.04602934  0.19247538  0.89528255  1
  H  H18  1  0.91592493  0.33409810  0.93404709  1
  H  H19  1  0.88840649  0.14877672  0.75135275  1
  H  H20  1  0.61219025  0.74606022  0.66953737  1
  H  H21  1  0.67341433  0.56249214  0.46236719  1
  H  H22  1  0.78090491  0.73630388  0.53570821  1
  H  H23  1  0.58411418  0.83424682  0.43437344  1
  H  H24  1  0.45428178  0.69276717  0.39601252  1
  H  H25  1  0.61107608  0.64898027  0.25121697  1
  H  H26  1  0.82342974  0.76761416  0.91177048  1
  H  H27  1  0.96926605  0.91788365  0.99636845  1
  H  H28  1  0.02151011  0.71676422  0.85288268  1
  H  H29  1  0.90156878  0.88573821  0.26339075  1
  H  H30  1  0.91097411  0.69069782  0.11584240  1
  H  H31  1  0.07548874  0.79688263  0.17725744  1
  N  N32  1  0.36187250  0.84575789  0.99172044  1
  N  N33  1  0.13703882  0.34564462  0.49175350  1
  N  N34  1  0.21823910  0.07520466  0.75217147  1
  N  N35  1  0.28196381  0.57530259  0.25232199  1
  Cl  Cl36  1  0.36756031  0.39162130  0.10570415  1
  Cl  Cl37  1  0.25835063  0.02136747  0.13127987  1
  Cl  Cl38  1  0.55934497  0.89221016  0.04344808  1
  Cl  Cl39  1  0.18214722  0.20993455  0.61439253  1
  Cl  Cl40  1  0.41708781  0.04680600  0.75994384  1
  Cl  Cl41  1  0.75838438  0.01605783  0.50404924  1
  Cl  Cl42  1  0.31740124  0.71017960  0.11462742  1
  Cl  Cl43  1  0.74134573  0.51619076  0.00421020  1
  Cl  Cl44  1  0.08319474  0.54670763  0.25951973  1
  Cl  Cl45  1  0.13293792  0.89144883  0.60566136  1
  Cl  Cl46  1  0.24105244  0.52087125  0.63099046  1
  Cl  Cl47  1  0.93975900  0.39284175  0.54434109  1
