# generated using pymatgen
data_MgH6CNCl3
_symmetry_space_group_name_H-M   'P 1'
_cell_length_a   7.07040898
_cell_length_b   10.09439517
_cell_length_c   7.54788653
_cell_angle_alpha   90.00101373
_cell_angle_beta   89.99329871
_cell_angle_gamma   89.99984765
_symmetry_Int_Tables_number   1
_chemical_formula_structural   MgH6CNCl3
_chemical_formula_sum   'Mg4 H24 C4 N4 Cl12'
_cell_volume   538.70399665
_cell_formula_units_Z   4
loop_
 _symmetry_equiv_pos_site_id
 _symmetry_equiv_pos_as_xyz
  1  'x, y, z'
loop_
 _atom_site_type_symbol
 _atom_site_label
 _atom_site_symmetry_multiplicity
 _atom_site_fract_x
 _atom_site_fract_y
 _atom_site_fract_z
 _atom_site_occupancy
  C  C0  1  0.47765784  0.24999053  0.41802855  1
  C  C1  1  0.97758502  0.24997424  0.08197504  1
  C  C2  1  0.52234351  0.75001024  0.58198547  1
  C  C3  1  0.02241837  0.75004827  0.91803404  1
  N  N4  1  0.54601050  0.25002035  0.60174584  1
  N  N5  1  0.04600614  0.25001351  0.89826469  1
  N  N6  1  0.45398478  0.74998164  0.39827032  1
  N  N7  1  0.95399825  0.74997512  0.10174464  1
  H  H8  1  0.59957911  0.24998435  0.33012522  1
  H  H9  1  0.39269706  0.16122619  0.39628996  1
  H  H10  1  0.39267339  0.33873210  0.39624164  1
  H  H11  1  0.62729007  0.16699471  0.63084245  1
  H  H12  1  0.62727154  0.33306821  0.63080327  1
  H  H13  1  0.43698672  0.25002733  0.69211211  1
  H  H14  1  0.09946765  0.24997366  0.16989194  1
  H  H15  1  0.89262955  0.16119866  0.10369940  1
  H  H16  1  0.89257218  0.33870416  0.10376727  1
  H  H17  1  0.12731118  0.16699740  0.86916648  1
  H  H18  1  0.12727676  0.33307143  0.86922612  1
  H  H19  1  0.93703026  0.25002204  0.80788212  1
  H  H20  1  0.40042338  0.75001870  0.66989168  1
  H  H21  1  0.60732465  0.66126756  0.60377075  1
  H  H22  1  0.60730708  0.83877337  0.60372263  1
  H  H23  1  0.37270768  0.83300708  0.36917519  1
  H  H24  1  0.37272257  0.66693406  0.36921438  1
  H  H25  1  0.56300790  0.74997208  0.30790035  1
  H  H26  1  0.90053189  0.75004902  0.83011911  1
  H  H27  1  0.10735061  0.83883786  0.89633201  1
  H  H28  1  0.10745087  0.66133279  0.89621528  1
  H  H29  1  0.87269379  0.83298353  0.13087065  1
  H  H30  1  0.87273338  0.66691018  0.13076054  1
  H  H31  1  0.06298021  0.74995027  0.19212629  1
  Mg  Mg32  1  0.50001414  0.00000159  0.00001103  1
  Mg  Mg33  1  0.99998972  0.50000303  0.50001518  1
  Mg  Mg34  1  0.00001357  0.00000346  0.49999502  1
  Mg  Mg35  1  0.49999289  0.50000125  0.00000782  1
  Cl  Cl36  1  0.48536972  0.24999933  0.00497180  1
  Cl  Cl37  1  0.22566657  0.98697899  0.21721925  1
  Cl  Cl38  1  0.72566738  0.98696563  0.28281437  1
  Cl  Cl39  1  0.98539028  0.25000838  0.49504990  1
  Cl  Cl40  1  0.27433594  0.01303431  0.71718341  1
  Cl  Cl41  1  0.77432765  0.01302702  0.78278597  1
  Cl  Cl42  1  0.51462918  0.75000270  0.99504365  1
  Cl  Cl43  1  0.72564161  0.51300315  0.28283361  1
  Cl  Cl44  1  0.22564312  0.51299263  0.21719064  1
  Cl  Cl45  1  0.01460453  0.74999601  0.50496037  1
  Cl  Cl46  1  0.27435316  0.48699826  0.71718836  1
  Cl  Cl47  1  0.77436037  0.48701191  0.78283081  1
