# generated using pymatgen
data_AlH6CNCl3
_symmetry_space_group_name_H-M   'P 1'
_cell_length_a   7.76568142
_cell_length_b   9.79886261
_cell_length_c   8.86533548
_cell_angle_alpha   88.20886745
_cell_angle_beta   90.00161740
_cell_angle_gamma   89.99256737
_symmetry_Int_Tables_number   1
_chemical_formula_structural   AlH6CNCl3
_chemical_formula_sum   'Al4 H24 C4 N4 Cl12'
_cell_volume   674.27672029
_cell_formula_units_Z   4
loop_
 _symmetry_equiv_pos_site_id
 _symmetry_equiv_pos_as_xyz
  1  'x, y, z'
loop_
 _atom_site_type_symbol
 _atom_site_label
 _atom_site_symmetry_multiplicity
 _atom_site_fract_x
 _atom_site_fract_y
 _atom_site_fract_z
 _atom_site_occupancy
  C  C0  1  0.48283193  0.29210043  0.41445164  1
  C  C1  1  0.98321728  0.20827039  0.08566007  1
  C  C2  1  0.50450975  0.74105207  0.56336251  1
  C  C3  1  0.00451883  0.75880340  0.93683396  1
  N  N4  1  0.52292278  0.23171224  0.56613356  1
  N  N5  1  0.02295315  0.26825726  0.93372967  1
  N  N6  1  0.42866764  0.68605990  0.42361032  1
  N  N7  1  0.92849123  0.81405398  0.07638241  1
  H  H8  1  0.60195852  0.33121308  0.36342031  1
  H  H9  1  0.42683169  0.21337202  0.34481801  1
  H  H10  1  0.38947084  0.37475522  0.42721137  1
  H  H11  1  0.59664550  0.14444817  0.55750031  1
  H  H12  1  0.59523048  0.30014335  0.62804841  1
  H  H13  1  0.41414855  0.20420902  0.62770343  1
  H  H14  1  0.10252692  0.16959095  0.13677375  1
  H  H15  1  0.89018469  0.12534837  0.07328738  1
  H  H16  1  0.92694669  0.28710520  0.15500125  1
  H  H17  1  0.09538667  0.19973905  0.87200890  1
  H  H18  1  0.09643470  0.35567824  0.94191857  1
  H  H19  1  0.91401846  0.29538372  0.87217854  1
  H  H20  1  0.40519002  0.79610025  0.62435017  1
  H  H21  1  0.55482456  0.65624960  0.63309155  1
  H  H22  1  0.60924702  0.81034186  0.53049144  1
  H  H23  1  0.38347732  0.76453000  0.35149122  1
  H  H24  1  0.32343965  0.62141702  0.44673946  1
  H  H25  1  0.52286813  0.63252460  0.36600108  1
  H  H26  1  0.90517044  0.70397021  0.87566388  1
  H  H27  1  0.05533316  0.84344291  0.86716082  1
  H  H28  1  0.10890530  0.68925889  0.97000242  1
  H  H29  1  0.82331922  0.87873317  0.05303488  1
  H  H30  1  0.88315956  0.73569269  0.14855978  1
  H  H31  1  0.02264094  0.86759982  0.13401656  1
  Al  Al32  1  0.50266363  0.98767199  0.02409606  1
  Al  Al33  1  0.00271118  0.51218746  0.47584869  1
  Al  Al34  1  0.93727487  0.01170177  0.53502963  1
  Al  Al35  1  0.43743356  0.48811966  0.96496277  1
  Cl  Cl36  1  0.59791538  0.31454596  0.01182188  1
  Cl  Cl37  1  0.28439733  0.93548420  0.20672483  1
  Cl  Cl38  1  0.74415061  0.00893729  0.35926613  1
  Cl  Cl39  1  0.09774172  0.18522807  0.48809528  1
  Cl  Cl40  1  0.30447032  0.04642246  0.83060712  1
  Cl  Cl41  1  0.80250263  0.03856238  0.74539420  1
  Cl  Cl42  1  0.56372324  0.68195858  0.95242822  1
  Cl  Cl43  1  0.78446479  0.56451411  0.29318156  1
  Cl  Cl44  1  0.24440638  0.49092966  0.14076636  1
  Cl  Cl45  1  0.06362267  0.81785942  0.54754565  1
  Cl  Cl46  1  0.30259367  0.46128705  0.75461473  1
  Cl  Cl47  1  0.80448013  0.45351115  0.66927589  1
