# generated using pymatgen
data_SiH6CNCl3
_symmetry_space_group_name_H-M   'P 1'
_cell_length_a   7.68450464
_cell_length_b   11.01180967
_cell_length_c   7.72982664
_cell_angle_alpha   89.02786818
_cell_angle_beta   89.68771925
_cell_angle_gamma   91.48549103
_symmetry_Int_Tables_number   1
_chemical_formula_structural   SiH6CNCl3
_chemical_formula_sum   'Si4 H24 C4 N4 Cl12'
_cell_volume   653.77497190
_cell_formula_units_Z   4
loop_
 _symmetry_equiv_pos_site_id
 _symmetry_equiv_pos_as_xyz
  1  'x, y, z'
loop_
 _atom_site_type_symbol
 _atom_site_label
 _atom_site_symmetry_multiplicity
 _atom_site_fract_x
 _atom_site_fract_y
 _atom_site_fract_z
 _atom_site_occupancy
  C  C0  1  0.45305991  0.24406787  0.44271193  1
  C  C1  1  0.94891059  0.25118730  0.03746400  1
  C  C2  1  0.55752958  0.73965612  0.56597415  1
  C  C3  1  0.02528926  0.75526312  0.95825502  1
  N  N4  1  0.58336796  0.23133571  0.58287788  1
  N  N5  1  0.07878039  0.23554554  0.89695644  1
  N  N6  1  0.42172774  0.72830191  0.43055696  1
  N  N7  1  0.91098218  0.74570755  0.11393024  1
  H  H8  1  0.50475588  0.20333948  0.32566244  1
  H  H9  1  0.33218254  0.19640220  0.48240641  1
  H  H10  1  0.42998124  0.34054903  0.41977846  1
  H  H11  1  0.60240286  0.14078773  0.61353113  1
  H  H12  1  0.70456468  0.26851784  0.54672360  1
  H  H13  1  0.54490788  0.27239871  0.69672214  1
  H  H14  1  0.00191116  0.21369543  0.15727246  1
  H  H15  1  0.82843987  0.20191527  0.00424131  1
  H  H16  1  0.92517552  0.34803723  0.05088055  1
  H  H17  1  0.10378004  0.14461956  0.87990463  1
  H  H18  1  0.19761765  0.27817960  0.92503706  1
  H  H19  1  0.03676960  0.26941024  0.77846018  1
  H  H20  1  0.51147412  0.69115826  0.68302959  1
  H  H21  1  0.67673126  0.69895373  0.51867845  1
  H  H22  1  0.58101351  0.83589982  0.59235954  1
  H  H23  1  0.30465269  0.76572435  0.46886540  1
  H  H24  1  0.39378408  0.63809338  0.40384749  1
  H  H25  1  0.45971279  0.76999454  0.31401449  1
  H  H26  1  0.94860093  0.72877116  0.84581323  1
  H  H27  1  0.07318274  0.84916187  0.94329776  1
  H  H28  1  0.13362724  0.69391205  0.97540285  1
  H  H29  1  0.80040733  0.79703071  0.09788881  1
  H  H30  1  0.86533474  0.65720786  0.13797854  1
  H  H31  1  0.97241377  0.77444451  0.22617896  1
  Si  Si32  1  0.48207228  0.01157613  0.00822628  1
  Si  Si33  1  0.99080288  0.50127143  0.52127141  1
  Si  Si34  1  0.99114192  0.00586482  0.51142879  1
  Si  Si35  1  0.47553278  0.51278739  0.00721390  1
  Cl  Cl36  1  0.47909033  0.30779415  0.97488398  1
  Cl  Cl37  1  0.24237564  0.01499053  0.16731369  1
  Cl  Cl38  1  0.76112874  0.00152655  0.33886417  1
  Cl  Cl39  1  0.98138758  0.29631060  0.48832004  1
  Cl  Cl40  1  0.34470721  0.00753222  0.75307342  1
  Cl  Cl41  1  0.83668112  0.00643958  0.75805643  1
  Cl  Cl42  1  0.51080316  0.80718878  0.03056998  1
  Cl  Cl43  1  0.66269956  0.51283185  0.23157479  1
  Cl  Cl44  1  0.23665768  0.50797620  0.17120719  1
  Cl  Cl45  1  0.02826673  0.80053047  0.50801083  1
  Cl  Cl46  1  0.24270194  0.50204788  0.66068209  1
  Cl  Cl47  1  0.82090249  0.49414000  0.75289751  1
