# generated using pymatgen
data_PH6CNCl3
_symmetry_space_group_name_H-M   'P 1'
_cell_length_a   8.17283422
_cell_length_b   10.00235353
_cell_length_c   8.27532323
_cell_angle_alpha   93.09485942
_cell_angle_beta   103.23996675
_cell_angle_gamma   91.39068073
_symmetry_Int_Tables_number   1
_chemical_formula_structural   PH6CNCl3
_chemical_formula_sum   'P4 H24 C4 N4 Cl12'
_cell_volume   657.07854356
_cell_formula_units_Z   4
loop_
 _symmetry_equiv_pos_site_id
 _symmetry_equiv_pos_as_xyz
  1  'x, y, z'
loop_
 _atom_site_type_symbol
 _atom_site_label
 _atom_site_symmetry_multiplicity
 _atom_site_fract_x
 _atom_site_fract_y
 _atom_site_fract_z
 _atom_site_occupancy
  C  C0  1  0.55993104  0.26568037  0.41971892  1
  C  C1  1  0.04019647  0.22395884  0.02513292  1
  C  C2  1  0.45689767  0.72836799  0.54859301  1
  C  C3  1  0.98692056  0.74317521  0.05410588  1
  N  N4  1  0.42990715  0.23394943  0.51146309  1
  N  N5  1  0.99348190  0.25596550  0.84763752  1
  N  N6  1  0.52803689  0.75081533  0.40247925  1
  N  N7  1  0.04044640  0.75706130  0.23882149  1
  H  H8  1  0.64598267  0.18311784  0.42510014  1
  H  H9  1  0.49708899  0.27896098  0.29024673  1
  H  H10  1  0.62895220  0.35807980  0.47520816  1
  H  H11  1  0.36271066  0.14646108  0.45758051  1
  H  H12  1  0.48154289  0.22030165  0.63492085  1
  H  H13  1  0.34426122  0.31653876  0.50610365  1
  H  H14  1  0.13775859  0.14951097  0.04213114  1
  H  H15  1  0.92886792  0.18369093  0.06076234  1
  H  H16  1  0.08751458  0.31585401  0.10089895  1
  H  H17  1  0.95963188  0.16827757  0.76631537  1
  H  H18  1  0.09145944  0.30519764  0.81294387  1
  H  H19  1  0.89260316  0.32007327  0.82577613  1
  H  H20  1  0.32038222  0.71169885  0.50699080  1
  H  H21  1  0.51325273  0.64109568  0.61071945  1
  H  H22  1  0.48326305  0.81767843  0.63344730  1
  H  H23  1  0.47533288  0.83698293  0.34530739  1
  H  H24  1  0.49577259  0.67024758  0.31461234  1
  H  H25  1  0.65773277  0.76474169  0.43959817  1
  H  H26  1  0.88170030  0.66992466  0.01606925  1
  H  H27  1  0.94963779  0.84106637  0.00839922  1
  H  H28  1  0.09360553  0.70922476  0.00563664  1
  H  H29  1  0.94931800  0.79899674  0.29186557  1
  H  H30  1  0.07045210  0.66542465  0.29319492  1
  H  H31  1  0.14426882  0.82607257  0.27121693  1
  P  P32  1  0.53666170  0.99274849  0.00804221  1
  P  P33  1  0.16160574  0.46655094  0.47014311  1
  P  P34  1  0.96339911  0.00254499  0.56565078  1
  P  P35  1  0.51502596  0.48985890  0.97730688  1
  Cl  Cl36  1  0.44594650  0.28507943  0.94660666  1
  Cl  Cl37  1  0.31380507  0.98230387  0.25930151  1
  Cl  Cl38  1  0.74809288  0.99131306  0.21741451  1
  Cl  Cl39  1  0.98640480  0.30146597  0.43654187  1
  Cl  Cl40  1  0.22282678  0.01367605  0.68275331  1
  Cl  Cl41  1  0.67889206  0.01808159  0.82384336  1
  Cl  Cl42  1  0.48410763  0.78835387  0.96750122  1
  Cl  Cl43  1  0.72079991  0.49328836  0.18314594  1
  Cl  Cl44  1  0.32219491  0.52304062  0.15460481  1
  Cl  Cl45  1  0.90887047  0.79959763  0.61535784  1
  Cl  Cl46  1  0.16589323  0.52953546  0.72142361  1
  Cl  Cl47  1  0.69658593  0.46444568  0.78766108  1
