# generated using pymatgen
data_ZnBH12C2(I3N)2
_symmetry_space_group_name_H-M   'P 1'
_cell_length_a   7.75725834
_cell_length_b   11.90987879
_cell_length_c   9.53707199
_cell_angle_alpha   88.82462957
_cell_angle_beta   77.15080407
_cell_angle_gamma   87.02296062
_symmetry_Int_Tables_number   1
_chemical_formula_structural   ZnBH12C2(I3N)2
_chemical_formula_sum   'Zn2 B2 H24 C4 I12 N4'
_cell_volume   857.85126551
_cell_formula_units_Z   2
loop_
 _symmetry_equiv_pos_site_id
 _symmetry_equiv_pos_as_xyz
  1  'x, y, z'
loop_
 _atom_site_type_symbol
 _atom_site_label
 _atom_site_symmetry_multiplicity
 _atom_site_fract_x
 _atom_site_fract_y
 _atom_site_fract_z
 _atom_site_occupancy
  C  C0  1  0.45726257  0.24298692  0.37064941  1
  C  C1  1  0.94837404  0.23386061  0.06227172  1
  C  C2  1  0.54180800  0.77298299  0.62455723  1
  C  C3  1  0.12526690  0.75801795  0.91790938  1
  N  N4  1  0.52524048  0.22236608  0.50322729  1
  N  N5  1  0.06076091  0.28101613  0.92920603  1
  N  N6  1  0.38732439  0.78163510  0.55601890  1
  N  N7  1  0.99642724  0.74585900  0.05763253  1
  H  H8  1  0.56728697  0.25524308  0.27854138  1
  H  H9  1  0.38482985  0.17022534  0.35205912  1
  H  H10  1  0.36889254  0.31858218  0.38575251  1
  H  H11  1  0.64152343  0.17180713  0.48609839  1
  H  H12  1  0.54717084  0.29643413  0.55048772  1
  H  H13  1  0.43314520  0.17882451  0.58021935  1
  H  H14  1  0.02564223  0.22762050  0.14556929  1
  H  H15  1  0.90613128  0.15128047  0.03894681  1
  H  H16  1  0.83251138  0.29128570  0.09658275  1
  H  H17  1  0.14776218  0.21940317  0.87283521  1
  H  H18  1  0.13413598  0.34564445  0.95569541  1
  H  H19  1  0.98306044  0.31418567  0.86146561  1
  H  H20  1  0.49474830  0.77792650  0.74130726  1
  H  H21  1  0.61280019  0.69193613  0.59695108  1
  H  H22  1  0.62693339  0.84284983  0.58595842  1
  H  H23  1  0.31251346  0.85679221  0.58717787  1
  H  H24  1  0.31100885  0.71214010  0.58588659  1
  H  H25  1  0.42505497  0.78152080  0.44397561  1
  H  H26  1  0.05005451  0.76579034  0.83329353  1
  H  H27  1  0.19821562  0.83399254  0.92096087  1
  H  H28  1  0.21419538  0.68246736  0.90180456  1
  H  H29  1  0.91120061  0.81682084  0.07906189  1
  H  H30  1  0.91835036  0.67763731  0.05391093  1
  H  H31  1  0.06090985  0.73370571  0.14142434  1
  B  B32  1  0.51564496  0.91961745  0.12420580  1
  B  B33  1  0.90228867  0.50019734  0.41600460  1
  Zn  Zn34  1  0.89590301  0.03507003  0.53870961  1
  Zn  Zn35  1  0.52059338  0.44241648  0.87654165  1
  I  I36  1  0.61230375  0.23061908  0.85151002  1
  I  I37  1  0.26638696  0.02803464  0.14849831  1
  I  I38  1  0.68170085  0.96507721  0.28466937  1
  I  I39  1  0.96713892  0.34566321  0.51121854  1
  I  I40  1  0.21010818  0.04517899  0.69493189  1
  I  I41  1  0.69479003  0.92465102  0.90313709  1
  I  I42  1  0.43013678  0.74226152  0.17102824  1
  I  I43  1  0.72137073  0.50266701  0.27906474  1
  I  I44  1  0.27412911  0.46057460  0.11731390  1
  I  I45  1  0.99969794  0.65920426  0.45486887  1
  I  I46  1  0.35386634  0.49217405  0.66733222  1
  I  I47  1  0.80342179  0.55383063  0.86382277  1
