# generated using pymatgen
data_CaH6CNCl3
_symmetry_space_group_name_H-M   'P 1'
_cell_length_a   7.99151615
_cell_length_b   10.86483362
_cell_length_c   7.30404121
_cell_angle_alpha   90.00016221
_cell_angle_beta   90.00121432
_cell_angle_gamma   89.98406330
_symmetry_Int_Tables_number   1
_chemical_formula_structural   CaH6CNCl3
_chemical_formula_sum   'Ca4 H24 C4 N4 Cl12'
_cell_volume   634.18426068
_cell_formula_units_Z   4
loop_
 _symmetry_equiv_pos_site_id
 _symmetry_equiv_pos_as_xyz
  1  'x, y, z'
loop_
 _atom_site_type_symbol
 _atom_site_label
 _atom_site_symmetry_multiplicity
 _atom_site_fract_x
 _atom_site_fract_y
 _atom_site_fract_z
 _atom_site_occupancy
  C  C0  1  0.42359541  0.25003603  0.45036771  1
  C  C1  1  0.92363231  0.25005430  0.04977494  1
  C  C2  1  0.57650511  0.75003799  0.54974377  1
  C  C3  1  0.07656701  0.75004131  0.95034902  1
  N  N4  1  0.59436067  0.25018754  0.52876862  1
  N  N5  1  0.09440576  0.25033637  0.97141104  1
  N  N6  1  0.40573223  0.74974807  0.47136123  1
  N  N7  1  0.90579752  0.74990839  0.02872637  1
  H  H8  1  0.43390234  0.24991392  0.30118828  1
  H  H9  1  0.35856411  0.16740527  0.49671105  1
  H  H10  1  0.35840803  0.33271139  0.49636116  1
  H  H11  1  0.65942901  0.17296962  0.48424690  1
  H  H12  1  0.65918968  0.32745605  0.48411256  1
  H  H13  1  0.58984720  0.25021787  0.67133170  1
  H  H14  1  0.93392517  0.24988320  0.19895968  1
  H  H15  1  0.85869619  0.16739365  0.00339707  1
  H  H16  1  0.85835196  0.33270260  0.00382526  1
  H  H17  1  0.15961307  0.17321077  0.01602062  1
  H  H18  1  0.15907677  0.32770564  0.01604540  1
  H  H19  1  0.08993030  0.25032079  0.82885530  1
  H  H20  1  0.56624204  0.75022249  0.69892531  1
  H  H21  1  0.64182278  0.66741309  0.50378867  1
  H  H22  1  0.64139213  0.83271080  0.50334421  1
  H  H23  1  0.34052407  0.82691022  0.51586128  1
  H  H24  1  0.34102060  0.67241115  0.51604033  1
  H  H25  1  0.41025118  0.74967919  0.32880227  1
  H  H26  1  0.06630688  0.75017642  0.80116494  1
  H  H27  1  0.14157458  0.83267094  0.99672096  1
  H  H28  1  0.14176875  0.66737535  0.99635587  1
  H  H29  1  0.84075845  0.82717345  0.98431226  1
  H  H30  1  0.84090888  0.67268434  0.98402617  1
  H  H31  1  0.91034674  0.74979489  0.17130011  1
  Ca  Ca32  1  0.49957314  0.99989663  0.00024757  1
  Ca  Ca33  1  0.99992564  0.49977851  0.49930439  1
  Ca  Ca34  1  0.99961583  0.99981429  0.50028337  1
  Ca  Ca35  1  0.50009357  0.49994771  0.99926540  1
  Cl  Cl36  1  0.49785062  0.24991086  0.95028563  1
  Cl  Cl37  1  0.21414217  0.01676182  0.20725909  1
  Cl  Cl38  1  0.71416843  0.01670976  0.29321566  1
  Cl  Cl39  1  0.99786349  0.24986321  0.54969478  1
  Cl  Cl40  1  0.28512138  0.98313721  0.70717846  1
  Cl  Cl41  1  0.78510294  0.98323015  0.79330076  1
  Cl  Cl42  1  0.50207334  0.74986976  0.04962050  1
  Cl  Cl43  1  0.71423901  0.48337387  0.29263990  1
  Cl  Cl44  1  0.21458711  0.48345852  0.20642321  1
  Cl  Cl45  1  0.00202546  0.74982117  0.45032751  1
  Cl  Cl46  1  0.28543020  0.51648972  0.70640424  1
  Cl  Cl47  1  0.78576446  0.51655201  0.79264605  1
