# generated using pymatgen
data_ZnH6CNCl3
_symmetry_space_group_name_H-M   'P 1'
_cell_length_a   6.58029561
_cell_length_b   11.86829167
_cell_length_c   7.86961214
_cell_angle_alpha   90.00195484
_cell_angle_beta   89.99792638
_cell_angle_gamma   89.98336395
_symmetry_Int_Tables_number   1
_chemical_formula_structural   ZnH6CNCl3
_chemical_formula_sum   'Zn4 H24 C4 N4 Cl12'
_cell_volume   614.59202980
_cell_formula_units_Z   4
loop_
 _symmetry_equiv_pos_site_id
 _symmetry_equiv_pos_as_xyz
  1  'x, y, z'
loop_
 _atom_site_type_symbol
 _atom_site_label
 _atom_site_symmetry_multiplicity
 _atom_site_fract_x
 _atom_site_fract_y
 _atom_site_fract_z
 _atom_site_occupancy
  C  C0  1  0.36288270  0.24638974  0.34835999  1
  C  C1  1  0.86259779  0.24654178  0.15132434  1
  C  C2  1  0.63707597  0.74629242  0.65169491  1
  C  C3  1  0.13747117  0.74654051  0.84869859  1
  N  N4  1  0.52683988  0.26615922  0.47286971  1
  N  N5  1  0.02670788  0.26607012  0.02685863  1
  N  N6  1  0.47323472  0.76624459  0.52714634  1
  N  N7  1  0.97332620  0.76606495  0.97314045  1
  H  H8  1  0.42858146  0.24183032  0.22061679  1
  H  H9  1  0.28744821  0.16730611  0.38097083  1
  H  H10  1  0.25635690  0.31692554  0.35566515  1
  H  H11  1  0.63736161  0.20433479  0.46809234  1
  H  H12  1  0.59836425  0.34397798  0.45141827  1
  H  H13  1  0.47430422  0.26502406  0.59861736  1
  H  H14  1  0.92821494  0.24202158  0.27909773  1
  H  H15  1  0.78695775  0.16749510  0.11881036  1
  H  H16  1  0.75628268  0.31716242  0.14386396  1
  H  H17  1  0.13702532  0.20415175  0.03176404  1
  H  H18  1  0.09842323  0.34384321  0.04827833  1
  H  H19  1  0.97426092  0.26493990  0.90108464  1
  H  H20  1  0.57132277  0.74177312  0.77942094  1
  H  H21  1  0.71239639  0.66717671  0.61907986  1
  H  H22  1  0.74373472  0.81676615  0.64445691  1
  H  H23  1  0.40177452  0.84406978  0.54861476  1
  H  H24  1  0.36258622  0.70446129  0.53182497  1
  H  H25  1  0.52582403  0.76507709  0.40141691  1
  H  H26  1  0.07188610  0.74203216  0.72091058  1
  H  H27  1  0.24368548  0.81720911  0.85619057  1
  H  H28  1  0.21322715  0.66753267  0.88118702  1
  H  H29  1  0.90148977  0.84378474  0.95173801  1
  H  H30  1  0.86307027  0.70407744  0.96819807  1
  H  H31  1  0.02573257  0.76490391  0.09892586  1
  Zn  Zn32  1  0.55801165  0.94165649  0.12041719  1
  Zn  Zn33  1  0.94194824  0.44168635  0.62033291  1
  Zn  Zn34  1  0.05799939  0.94171281  0.37966928  1
  Zn  Zn35  1  0.44189608  0.44165036  0.87954764  1
  Cl  Cl36  1  0.46567023  0.25325881  0.86610633  1
  Cl  Cl37  1  0.22149735  0.00683619  0.12853114  1
  Cl  Cl38  1  0.72153082  0.00693486  0.37142881  1
  Cl  Cl39  1  0.96578458  0.25329576  0.63357328  1
  Cl  Cl40  1  0.23877056  0.99623176  0.60355331  1
  Cl  Cl41  1  0.73874836  0.99604817  0.89644477  1
  Cl  Cl42  1  0.53438027  0.75327665  0.13392282  1
  Cl  Cl43  1  0.76117451  0.49619146  0.39643076  1
  Cl  Cl44  1  0.26115065  0.49609466  0.10352361  1
  Cl  Cl45  1  0.03423941  0.75332073  0.36646188  1
  Cl  Cl46  1  0.27836316  0.50690903  0.62853276  1
  Cl  Cl47  1  0.77841067  0.50679389  0.87148288  1
