# generated using pymatgen
data_GaH6CNCl3
_symmetry_space_group_name_H-M   'P 1'
_cell_length_a   7.89030436
_cell_length_b   9.85978356
_cell_length_c   8.82902467
_cell_angle_alpha   93.10318868
_cell_angle_beta   89.99345150
_cell_angle_gamma   90.00838804
_symmetry_Int_Tables_number   1
_chemical_formula_structural   GaH6CNCl3
_chemical_formula_sum   'Ga4 H24 C4 N4 Cl12'
_cell_volume   685.86172782
_cell_formula_units_Z   4
loop_
 _symmetry_equiv_pos_site_id
 _symmetry_equiv_pos_as_xyz
  1  'x, y, z'
loop_
 _atom_site_type_symbol
 _atom_site_label
 _atom_site_symmetry_multiplicity
 _atom_site_fract_x
 _atom_site_fract_y
 _atom_site_fract_z
 _atom_site_occupancy
  C  C0  1  0.48642760  0.23931332  0.43022542  1
  C  C1  1  0.98311315  0.24305396  0.07271711  1
  C  C2  1  0.51679363  0.74338824  0.57279811  1
  C  C3  1  0.01372638  0.73947910  0.92999847  1
  N  N4  1  0.53057472  0.25909074  0.59326229  1
  N  N5  1  0.05899896  0.27564715  0.92516539  1
  N  N6  1  0.44144850  0.77552343  0.42490407  1
  N  N7  1  0.96931389  0.75911009  0.09299373  1
  H  H8  1  0.59181915  0.18980375  0.36853914  1
  H  H9  1  0.37252627  0.17604514  0.41837150  1
  H  H10  1  0.46132014  0.33908828  0.38648502  1
  H  H11  1  0.54906043  0.16852639  0.64374928  1
  H  H12  1  0.64090432  0.31676426  0.61367987  1
  H  H13  1  0.43379769  0.31387258  0.65102664  1
  H  H14  1  0.07664112  0.18937898  0.13861566  1
  H  H15  1  0.87207188  0.17823820  0.05132342  1
  H  H16  1  0.94450083  0.33768920  0.13359551  1
  H  H17  1  0.09855279  0.18909788  0.86321721  1
  H  H18  1  0.16510855  0.33671845  0.93744963  1
  H  H19  1  0.97342244  0.32775061  0.85715803  1
  H  H20  1  0.42297258  0.68998085  0.63869296  1
  H  H21  1  0.62782303  0.67845597  0.55194387  1
  H  H22  1  0.55533447  0.83817956  0.63339488  1
  H  H23  1  0.33537499  0.83669645  0.43661104  1
  H  H24  1  0.40200215  0.68880412  0.36321034  1
  H  H25  1  0.52727498  0.82739640  0.35688373  1
  H  H26  1  0.90832411  0.69017940  0.86811388  1
  H  H27  1  0.03917490  0.83928492  0.88644643  1
  H  H28  1  0.12748781  0.67606580  0.91817439  1
  H  H29  1  0.85908057  0.81690554  0.11334378  1
  H  H30  1  0.95049679  0.66850188  0.14331763  1
  H  H31  1  0.06608703  0.81371297  0.15097385  1
  Ga  Ga32  1  0.47658167  0.97405776  0.01682671  1
  Ga  Ga33  1  0.02306054  0.47406942  0.51690147  1
  Ga  Ga34  1  0.98912446  0.00472355  0.58130443  1
  Ga  Ga35  1  0.51065082  0.50476814  0.08124520  1
  Cl  Cl36  1  0.50711458  0.29401311  0.98382949  1
  Cl  Cl37  1  0.24151874  0.96659822  0.20730557  1
  Cl  Cl38  1  0.68612709  0.94703519  0.23139336  1
  Cl  Cl39  1  0.95567674  0.17645667  0.43610648  1
  Cl  Cl40  1  0.23925827  0.03152543  0.70046259  1
  Cl  Cl41  1  0.79002329  0.02470224  0.75981818  1
  Cl  Cl42  1  0.54412983  0.67648374  0.93601346  1
  Cl  Cl43  1  0.70983169  0.52473831  0.25965327  1
  Cl  Cl44  1  0.26051081  0.53150687  0.20044988  1
  Cl  Cl45  1  0.99248811  0.79400218  0.48380834  1
  Cl  Cl46  1  0.25844676  0.46674681  0.70695506  1
  Cl  Cl47  1  0.81392446  0.44690704  0.73184081  1
