# generated using pymatgen
data_GeH6CNCl3
_symmetry_space_group_name_H-M   'P 1'
_cell_length_a   8.16723141
_cell_length_b   10.96694787
_cell_length_c   7.35911581
_cell_angle_alpha   90.52869233
_cell_angle_beta   90.53262092
_cell_angle_gamma   90.55147785
_symmetry_Int_Tables_number   1
_chemical_formula_structural   GeH6CNCl3
_chemical_formula_sum   'Ge4 H24 C4 N4 Cl12'
_cell_volume   659.06544510
_cell_formula_units_Z   4
loop_
 _symmetry_equiv_pos_site_id
 _symmetry_equiv_pos_as_xyz
  1  'x, y, z'
loop_
 _atom_site_type_symbol
 _atom_site_label
 _atom_site_symmetry_multiplicity
 _atom_site_fract_x
 _atom_site_fract_y
 _atom_site_fract_z
 _atom_site_occupancy
  C  C0  1  0.42711989  0.24923312  0.45123972  1
  C  C1  1  0.92620954  0.24887544  0.05232058  1
  C  C2  1  0.56679738  0.74978366  0.53689166  1
  C  C3  1  0.06875194  0.73643858  0.94241783  1
  N  N4  1  0.59375085  0.25302660  0.53353889  1
  N  N5  1  0.09597232  0.25384287  0.98217396  1
  N  N6  1  0.40023578  0.74192945  0.45469733  1
  N  N7  1  0.90518897  0.75008804  0.02604211  1
  H  H8  1  0.43883946  0.23910826  0.30396008  1
  H  H9  1  0.35995096  0.17136130  0.50618097  1
  H  H10  1  0.36497553  0.33425265  0.48443711  1
  H  H11  1  0.65827841  0.17523235  0.49807028  1
  H  H12  1  0.65942932  0.32783123  0.48577205  1
  H  H13  1  0.58731178  0.25972574  0.67461280  1
  H  H14  1  0.93200738  0.23762660  0.19971333  1
  H  H15  1  0.86184355  0.17141733  0.98910565  1
  H  H16  1  0.86529349  0.33421421  0.01919804  1
  H  H17  1  0.15926650  0.17511578  0.01608904  1
  H  H18  1  0.15845165  0.32734984  0.04028264  1
  H  H19  1  0.09521808  0.26369519  0.84150380  1
  H  H20  1  0.55736578  0.73216950  0.68237255  1
  H  H21  1  0.64378269  0.68113988  0.47250332  1
  H  H22  1  0.61611226  0.84131469  0.51435760  1
  H  H23  1  0.32572008  0.80822141  0.51031765  1
  H  H24  1  0.34653914  0.65794317  0.47925780  1
  H  H25  1  0.40550405  0.75475148  0.31456542  1
  H  H26  1  0.05183950  0.71537965  0.79783283  1
  H  H27  1  0.13670021  0.82222624  0.95902147  1
  H  H28  1  0.13313307  0.66227525  0.00966916  1
  H  H29  1  0.84582177  0.82440758  0.97017634  1
  H  H30  1  0.83314056  0.67322989  0.99950076  1
  H  H31  1  0.91550815  0.76322143  0.16621870  1
  Ge  Ge32  1  0.48016544  0.99046952  0.98874302  1
  Ge  Ge33  1  0.99133736  0.49339312  0.50285666  1
  Ge  Ge34  1  0.98109196  0.99497516  0.50355931  1
  Ge  Ge35  1  0.49780690  0.49287059  0.98570196  1
  Cl  Cl36  1  0.49817392  0.27210632  0.95410545  1
  Cl  Cl37  1  0.24294319  0.01338710  0.17473702  1
  Cl  Cl38  1  0.74283283  0.02046267  0.31672464  1
  Cl  Cl39  1  0.99892163  0.27694883  0.56018626  1
  Cl  Cl40  1  0.32235589  0.97616739  0.71497681  1
  Cl  Cl41  1  0.82398520  0.98126314  0.77544534  1
  Cl  Cl42  1  0.49933900  0.77242895  0.04045346  1
  Cl  Cl43  1  0.74833482  0.48124314  0.31923933  1
  Cl  Cl44  1  0.17749891  0.48741376  0.24987769  1
  Cl  Cl45  1  0.99600670  0.77706832  0.44825906  1
  Cl  Cl46  1  0.31857514  0.51532972  0.73184478  1
  Cl  Cl47  1  0.74459481  0.51812216  0.81954431  1
