# generated using pymatgen
data_SrH6CNCl3
_symmetry_space_group_name_H-M   'P 1'
_cell_length_a   8.23624876
_cell_length_b   11.32683421
_cell_length_c   7.46059742
_cell_angle_alpha   90.00014158
_cell_angle_beta   89.99993255
_cell_angle_gamma   89.98951758
_symmetry_Int_Tables_number   1
_chemical_formula_structural   SrH6CNCl3
_chemical_formula_sum   'Sr4 H24 C4 N4 Cl12'
_cell_volume   696.00377922
_cell_formula_units_Z   4
loop_
 _symmetry_equiv_pos_site_id
 _symmetry_equiv_pos_as_xyz
  1  'x, y, z'
loop_
 _atom_site_type_symbol
 _atom_site_label
 _atom_site_symmetry_multiplicity
 _atom_site_fract_x
 _atom_site_fract_y
 _atom_site_fract_z
 _atom_site_occupancy
  C  C0  1  0.40952836  0.24984411  0.43827473  1
  C  C1  1  0.90947795  0.24984503  0.06175600  1
  C  C2  1  0.59047445  0.75015891  0.56173843  1
  C  C3  1  0.09052150  0.75015776  0.93825758  1
  N  N4  1  0.57542088  0.24997801  0.51559470  1
  N  N5  1  0.07536322  0.24997783  0.98441878  1
  N  N6  1  0.42458320  0.75002762  0.48441441  1
  N  N7  1  0.92463534  0.75002696  0.01559317  1
  H  H8  1  0.41919264  0.24980232  0.29189320  1
  H  H9  1  0.34630597  0.17044490  0.48348832  1
  H  H10  1  0.34605765  0.32918842  0.48336957  1
  H  H11  1  0.63839700  0.17534906  0.47193910  1
  H  H12  1  0.63818827  0.32467512  0.47187788  1
  H  H13  1  0.57025170  0.24999947  0.65527712  1
  H  H14  1  0.91915454  0.24980234  0.20813723  1
  H  H15  1  0.84624953  0.17044754  0.01654828  1
  H  H16  1  0.84600530  0.32919062  0.01667087  1
  H  H17  1  0.13834391  0.17534856  0.02806817  1
  H  H18  1  0.13813640  0.32467429  0.02812792  1
  H  H19  1  0.07018361  0.24999809  0.84473643  1
  H  H20  1  0.58080704  0.75020079  0.70811960  1
  H  H21  1  0.65394337  0.67081362  0.51664470  1
  H  H22  1  0.65369966  0.82955685  0.51652635  1
  H  H23  1  0.36160701  0.82465770  0.52806809  1
  H  H24  1  0.36181374  0.67533160  0.52812986  1
  H  H25  1  0.42975529  0.75000580  0.34473171  1
  H  H26  1  0.08084614  0.75019821  0.79187651  1
  H  H27  1  0.15374930  0.82955595  0.98346274  1
  H  H28  1  0.15399366  0.67081290  0.98334659  1
  H  H29  1  0.86165660  0.82465749  0.97194559  1
  H  H30  1  0.86186144  0.67533145  0.97188178  1
  H  H31  1  0.92981422  0.75000483  0.15527565  1
  Sr  Sr32  1  0.49999326  0.00000042  0.00000487  1
  Sr  Sr33  1  0.00000680  0.50000167  0.50000589  1
  Sr  Sr34  1  0.99999241  0.00000187  0.50000556  1
  Sr  Sr35  1  0.50000715  0.49999973  0.00000550  1
  Cl  Cl36  1  0.48788208  0.24999864  0.93346158  1
  Cl  Cl37  1  0.19809958  0.02192221  0.18678365  1
  Cl  Cl38  1  0.69810137  0.02191591  0.31322726  1
  Cl  Cl39  1  0.98789317  0.25000037  0.56654132  1
  Cl  Cl40  1  0.30188135  0.97808494  0.68678621  1
  Cl  Cl41  1  0.80189132  0.97808292  0.81323267  1
  Cl  Cl42  1  0.51211765  0.75000182  0.06654795  1
  Cl  Cl43  1  0.69798084  0.47811320  0.31339068  1
  Cl  Cl44  1  0.19798105  0.47810635  0.18662377  1
  Cl  Cl45  1  0.01210462  0.75000299  0.43346918  1
  Cl  Cl46  1  0.30203191  0.52188987  0.68662433  1
  Cl  Cl47  1  0.80204030  0.52189122  0.81339510  1
