# generated using pymatgen
data_H6PdCNCl3
_symmetry_space_group_name_H-M   'P 1'
_cell_length_a   8.29193448
_cell_length_b   8.75251942
_cell_length_c   8.20025418
_cell_angle_alpha   89.99986115
_cell_angle_beta   89.98216692
_cell_angle_gamma   90.00032783
_symmetry_Int_Tables_number   1
_chemical_formula_structural   H6PdCNCl3
_chemical_formula_sum   'H24 Pd4 C4 N4 Cl12'
_cell_volume   595.13602200
_cell_formula_units_Z   4
loop_
 _symmetry_equiv_pos_site_id
 _symmetry_equiv_pos_as_xyz
  1  'x, y, z'
loop_
 _atom_site_type_symbol
 _atom_site_label
 _atom_site_symmetry_multiplicity
 _atom_site_fract_x
 _atom_site_fract_y
 _atom_site_fract_z
 _atom_site_occupancy
  C  C0  1  0.49051907  0.24999880  0.40321883  1
  C  C1  1  0.98954739  0.25000381  0.09675324  1
  C  C2  1  0.50947997  0.75000468  0.59679473  1
  C  C3  1  0.01044825  0.75000254  0.90325611  1
  N  N4  1  0.52541760  0.25000573  0.58020696  1
  N  N5  1  0.02509421  0.25000344  0.91987066  1
  N  N6  1  0.47458453  0.74999899  0.41980291  1
  N  N7  1  0.97491403  0.74999575  0.08013995  1
  H  H8  1  0.60392787  0.24999653  0.33550579  1
  H  H9  1  0.41964657  0.14823728  0.37408776  1
  H  H10  1  0.41965455  0.35177586  0.37408847  1
  H  H11  1  0.59156922  0.15595013  0.61881852  1
  H  H12  1  0.59157492  0.34403473  0.61881744  1
  H  H13  1  0.41869469  0.25000371  0.64588825  1
  H  H14  1  0.10270553  0.24999700  0.16484059  1
  H  H15  1  0.91856208  0.14824194  0.12566906  1
  H  H16  1  0.91857399  0.35177544  0.12566948  1
  H  H17  1  0.09135831  0.15596067  0.88145314  1
  H  H18  1  0.09136650  0.34403756  0.88145282  1
  H  H19  1  0.91859551  0.25000813  0.85386564  1
  H  H20  1  0.39607081  0.75000551  0.66450251  1
  H  H21  1  0.58034421  0.64822921  0.62592229  1
  H  H22  1  0.58034983  0.85176614  0.62592411  1
  H  H23  1  0.40843034  0.84405346  0.38119109  1
  H  H24  1  0.40842722  0.65596789  0.38119097  1
  H  H25  1  0.58130703  0.75000208  0.35412334  1
  H  H26  1  0.89729403  0.75001012  0.83517128  1
  H  H27  1  0.08143849  0.85175994  0.87434203  1
  H  H28  1  0.08142226  0.64822580  0.87433884  1
  H  H29  1  0.90864039  0.84404494  0.11856067  1
  H  H30  1  0.90863307  0.65596399  0.11855772  1
  H  H31  1  0.08140299  0.74999323  0.14614245  1
  Pd  Pd32  1  0.50000505  0.00000113  0.00000838  1
  Pd  Pd33  1  0.00000199  0.50000048  0.50000863  1
  Pd  Pd34  1  0.00000316  0.00000307  0.50000835  1
  Pd  Pd35  1  0.49999929  0.50000050  0.00000785  1
  Cl  Cl36  1  0.40959934  0.25000202  0.96008673  1
  Cl  Cl37  1  0.27761496  0.96719600  0.16823211  1
  Cl  Cl38  1  0.77765813  0.96686720  0.33196983  1
  Cl  Cl39  1  0.90951520  0.25000123  0.53961767  1
  Cl  Cl40  1  0.22234736  0.03313918  0.66804792  1
  Cl  Cl41  1  0.72238937  0.03280646  0.83177676  1
  Cl  Cl42  1  0.59040534  0.74999804  0.03992638  1
  Cl  Cl43  1  0.77765464  0.53313962  0.33196990  1
  Cl  Cl44  1  0.27761376  0.53280760  0.16823616  1
  Cl  Cl45  1  0.09048790  0.75000216  0.46040489  1
  Cl  Cl46  1  0.22234885  0.46686259  0.66804877  1
  Cl  Cl47  1  0.72238394  0.46719599  0.83177858  1
