# generated using pymatgen
data_CdH6CNCl3
_symmetry_space_group_name_H-M   'P 1'
_cell_length_a   7.25000494
_cell_length_b   10.43798245
_cell_length_c   7.74921308
_cell_angle_alpha   89.99731932
_cell_angle_beta   89.92155701
_cell_angle_gamma   89.98760884
_symmetry_Int_Tables_number   1
_chemical_formula_structural   CdH6CNCl3
_chemical_formula_sum   'Cd4 H24 C4 N4 Cl12'
_cell_volume   586.42442397
_cell_formula_units_Z   4
loop_
 _symmetry_equiv_pos_site_id
 _symmetry_equiv_pos_as_xyz
  1  'x, y, z'
loop_
 _atom_site_type_symbol
 _atom_site_label
 _atom_site_symmetry_multiplicity
 _atom_site_fract_x
 _atom_site_fract_y
 _atom_site_fract_z
 _atom_site_occupancy
  C  C0  1  0.48846810  0.24992636  0.41746124  1
  C  C1  1  0.98778001  0.25014861  0.07960022  1
  C  C2  1  0.50951843  0.74948965  0.58140998  1
  C  C3  1  0.01082699  0.74953896  0.92045343  1
  N  N4  1  0.54094085  0.25015266  0.60168263  1
  N  N5  1  0.04040201  0.25004895  0.89531276  1
  N  N6  1  0.45734945  0.75037665  0.39708502  1
  N  N7  1  0.95896767  0.75018349  0.10498160  1
  H  H8  1  0.61415867  0.25017417  0.34006536  1
  H  H9  1  0.40783133  0.16374690  0.39064899  1
  H  H10  1  0.40692573  0.33569200  0.39047825  1
  H  H11  1  0.61792783  0.16981630  0.63547334  1
  H  H12  1  0.61803809  0.33051556  0.63506691  1
  H  H13  1  0.42703462  0.25034249  0.68126271  1
  H  H14  1  0.11342298  0.25028150  0.15673104  1
  H  H15  1  0.90683668  0.16412822  0.10681338  1
  H  H16  1  0.90658013  0.33611872  0.10658110  1
  H  H17  1  0.11745183  0.16964066  0.86164712  1
  H  H18  1  0.11764999  0.33035423  0.86157316  1
  H  H19  1  0.92655711  0.25014389  0.81596305  1
  H  H20  1  0.38368942  0.74937529  0.65863458  1
  H  H21  1  0.59021171  0.66319921  0.60759478  1
  H  H22  1  0.59085694  0.83522188  0.60896686  1
  H  H23  1  0.37999184  0.83069547  0.36399395  1
  H  H24  1  0.38065284  0.67009361  0.36252286  1
  H  H25  1  0.57133034  0.75105849  0.31763255  1
  H  H26  1  0.88488501  0.74965213  0.84373132  1
  H  H27  1  0.09230613  0.83523560  0.89275690  1
  H  H28  1  0.09137866  0.66323139  0.89370109  1
  H  H29  1  0.88202207  0.83060749  0.13871471  1
  H  H30  1  0.88201624  0.66999111  0.13965382  1
  H  H31  1  0.07314214  0.75044933  0.18386116  1
  Cd  Cd32  1  0.50407466  0.00002758  0.00181050  1
  Cd  Cd33  1  0.00421321  0.49999608  0.50041951  1
  Cd  Cd34  1  0.00400369  0.00038798  0.50015143  1
  Cd  Cd35  1  0.50445676  0.49949601  0.00243374  1
  Cl  Cl36  1  0.48015875  0.24987986  0.00762974  1
  Cl  Cl37  1  0.22658338  0.98134430  0.21879992  1
  Cl  Cl38  1  0.72706478  0.98118391  0.28213238  1
  Cl  Cl39  1  0.98105532  0.25014902  0.49010400  1
  Cl  Cl40  1  0.27487438  0.01888477  0.72129502  1
  Cl  Cl41  1  0.77414327  0.01905207  0.77891835  1
  Cl  Cl42  1  0.52046540  0.74983055  0.99194085  1
  Cl  Cl43  1  0.72728793  0.51912872  0.28225922  1
  Cl  Cl44  1  0.22708398  0.51901411  0.21967417  1
  Cl  Cl45  1  0.01915381  0.75019340  0.50979646  1
  Cl  Cl46  1  0.27441776  0.48101984  0.72221757  1
  Cl  Cl47  1  0.77383484  0.48085910  0.77865785  1
