# generated using pymatgen
data_InH6CNCl3
_symmetry_space_group_name_H-M   'P 1'
_cell_length_a   8.20550066
_cell_length_b   11.20310904
_cell_length_c   7.41458086
_cell_angle_alpha   95.41945413
_cell_angle_beta   90.00155293
_cell_angle_gamma   90.00350223
_symmetry_Int_Tables_number   1
_chemical_formula_structural   InH6CNCl3
_chemical_formula_sum   'In4 H24 C4 N4 Cl12'
_cell_volume   678.55426388
_cell_formula_units_Z   4
loop_
 _symmetry_equiv_pos_site_id
 _symmetry_equiv_pos_as_xyz
  1  'x, y, z'
loop_
 _atom_site_type_symbol
 _atom_site_label
 _atom_site_symmetry_multiplicity
 _atom_site_fract_x
 _atom_site_fract_y
 _atom_site_fract_z
 _atom_site_occupancy
  C  C0  1  0.43041593  0.22665252  0.42694052  1
  C  C1  1  0.93028149  0.27338500  0.07318342  1
  C  C2  1  0.56948559  0.77321827  0.57299498  1
  C  C3  1  0.06974674  0.72675216  0.92676502  1
  N  N4  1  0.58490843  0.27165494  0.51270514  1
  N  N5  1  0.08488884  0.22866358  0.98739875  1
  N  N6  1  0.41492848  0.72827577  0.48731886  1
  N  N7  1  0.91511293  0.77143963  0.01252111  1
  H  H8  1  0.44697793  0.21817498  0.27980648  1
  H  H9  1  0.40033093  0.13991352  0.47473416  1
  H  H10  1  0.33379885  0.29153743  0.46423390  1
  H  H11  1  0.67846397  0.21073556  0.48252721  1
  H  H12  1  0.61683335  0.35299404  0.46423954  1
  H  H13  1  0.57246214  0.28407670  0.65322826  1
  H  H14  1  0.94692683  0.28202332  0.22031038  1
  H  H15  1  0.83390470  0.20825852  0.03607877  1
  H  H16  1  0.89980699  0.36000883  0.02524395  1
  H  H17  1  0.11701135  0.14734881  0.03578583  1
  H  H18  1  0.17827151  0.28972823  0.01768870  1
  H  H19  1  0.07245488  0.21628827  0.84686746  1
  H  H20  1  0.55293785  0.78180647  0.72014207  1
  H  H21  1  0.66599845  0.70823400  0.53578497  1
  H  H22  1  0.59968998  0.85989316  0.52506081  1
  H  H23  1  0.32139697  0.78920387  0.51758376  1
  H  H24  1  0.38302223  0.64692725  0.53576384  1
  H  H25  1  0.42730312  0.71588367  0.34678826  1
  H  H26  1  0.05310794  0.71811423  0.77963003  1
  H  H27  1  0.16608968  0.79190898  0.96386923  1
  H  H28  1  0.10026235  0.64013859  0.97470757  1
  H  H29  1  0.88292708  0.85272035  0.96405118  1
  H  H30  1  0.82177711  0.71032541  0.98228825  1
  H  H31  1  0.92754070  0.78387153  0.15304553  1
  In  In32  1  0.50003436  0.99994074  0.00007941  1
  In  In33  1  0.00016346  0.49995536  0.50019861  1
  In  In34  1  0.00001784  0.00000545  0.49999547  1
  In  In35  1  0.50013710  0.49994965  0.00014936  1
  Cl  Cl36  1  0.50256715  0.27128882  0.93451304  1
  Cl  Cl37  1  0.16398278  0.00550447  0.20746248  1
  Cl  Cl38  1  0.73821806  0.01847159  0.32343362  1
  Cl  Cl39  1  0.00239910  0.22871170  0.56569810  1
  Cl  Cl40  1  0.26178779  0.98158645  0.67659527  1
  Cl  Cl41  1  0.83599430  0.99458886  0.79250736  1
  Cl  Cl42  1  0.49757293  0.72863060  0.06562993  1
  Cl  Cl43  1  0.66422612  0.49472260  0.29261509  1
  Cl  Cl44  1  0.23838261  0.48160774  0.17683955  1
  Cl  Cl45  1  0.99756144  0.77133389  0.43424931  1
  Cl  Cl46  1  0.33607268  0.50521096  0.70763678  1
  Cl  Cl47  1  0.76184070  0.51841181  0.82340529  1
