# generated using pymatgen
data_SnH6CNCl3
_symmetry_space_group_name_H-M   'P 1'
_cell_length_a   8.20465345
_cell_length_b   11.20411473
_cell_length_c   7.47865747
_cell_angle_alpha   90.06986329
_cell_angle_beta   89.49380643
_cell_angle_gamma   89.95391013
_symmetry_Int_Tables_number   1
_chemical_formula_structural   SnH6CNCl3
_chemical_formula_sum   'Sn4 H24 C4 N4 Cl12'
_cell_volume   687.45458875
_cell_formula_units_Z   4
loop_
 _symmetry_equiv_pos_site_id
 _symmetry_equiv_pos_as_xyz
  1  'x, y, z'
loop_
 _atom_site_type_symbol
 _atom_site_label
 _atom_site_symmetry_multiplicity
 _atom_site_fract_x
 _atom_site_fract_y
 _atom_site_fract_z
 _atom_site_occupancy
  C  C0  1  0.41965728  0.24855426  0.44593799  1
  C  C1  1  0.91993749  0.25057455  0.05537085  1
  C  C2  1  0.58029628  0.74905232  0.55554973  1
  C  C3  1  0.08111546  0.75156569  0.94497738  1
  N  N4  1  0.58476506  0.24816175  0.52554930  1
  N  N5  1  0.08515001  0.25097075  0.97291431  1
  N  N6  1  0.41558065  0.74973693  0.47498819  1
  N  N7  1  0.91535908  0.75254464  0.02611853  1
  H  H8  1  0.43259904  0.24907297  0.30020976  1
  H  H9  1  0.35527760  0.16823270  0.48954108  1
  H  H10  1  0.35503615  0.32867000  0.49079418  1
  H  H11  1  0.65027865  0.17376529  0.48177414  1
  H  H12  1  0.64798389  0.32374074  0.48492780  1
  H  H13  1  0.57721603  0.24672760  0.66482577  1
  H  H14  1  0.93272379  0.25021963  0.20090625  1
  H  H15  1  0.85596937  0.17023984  0.01194062  1
  H  H16  1  0.85501077  0.33069384  0.01271246  1
  H  H17  1  0.15053346  0.17661483  0.01526201  1
  H  H18  1  0.14813199  0.32664441  0.01320917  1
  H  H19  1  0.07778579  0.24975386  0.83383579  1
  H  H20  1  0.56672004  0.74949043  0.70122270  1
  H  H21  1  0.64423637  0.66843236  0.51182907  1
  H  H22  1  0.64584347  0.82883797  0.51154698  1
  H  H23  1  0.35273604  0.82555547  0.51607759  1
  H  H24  1  0.34933504  0.67553320  0.51755969  1
  H  H25  1  0.42379581  0.74861988  0.33573161  1
  H  H26  1  0.06934332  0.75113396  0.79934477  1
  H  H27  1  0.14603172  0.83149167  0.98835271  1
  H  H28  1  0.14447397  0.67106436  0.98878050  1
  H  H29  1  0.85276093  0.82825784  0.98517777  1
  H  H30  1  0.85013215  0.67816942  0.98348758  1
  H  H31  1  0.92186166  0.75163608  0.16525455  1
  Sn  Sn32  1  0.49577052  0.00355696  0.99679328  1
  Sn  Sn33  1  0.00195240  0.50335702  0.49019164  1
  Sn  Sn34  1  0.99737482  0.00321259  0.50787237  1
  Sn  Sn35  1  0.50415860  0.50373462  0.00230725  1
  Cl  Cl36  1  0.49176268  0.24315437  0.94137143  1
  Cl  Cl37  1  0.21673108  0.02274826  0.18536698  1
  Cl  Cl38  1  0.72793459  0.01988492  0.31701532  1
  Cl  Cl39  1  0.98978030  0.24236385  0.55949547  1
  Cl  Cl40  1  0.31744057  0.98137690  0.70662637  1
  Cl  Cl41  1  0.80778084  0.98143816  0.79822580  1
  Cl  Cl42  1  0.50817068  0.74339228  0.05906289  1
  Cl  Cl43  1  0.67813679  0.48065364  0.29399246  1
  Cl  Cl44  1  0.19117100  0.48111233  0.19963340  1
  Cl  Cl45  1  0.00906566  0.74252758  0.44002578  1
  Cl  Cl46  1  0.27039609  0.52093232  0.68032267  1
  Cl  Cl47  1  0.78471877  0.52287329  0.81628268  1
