# generated using pymatgen
data_BaH6CNCl3
_symmetry_space_group_name_H-M   'P 1'
_cell_length_a   8.44972484
_cell_length_b   11.81787605
_cell_length_c   7.72706936
_cell_angle_alpha   90.00040980
_cell_angle_beta   90.00273408
_cell_angle_gamma   90.00322610
_symmetry_Int_Tables_number   1
_chemical_formula_structural   BaH6CNCl3
_chemical_formula_sum   'Ba4 H24 C4 N4 Cl12'
_cell_volume   771.60815061
_cell_formula_units_Z   4
loop_
 _symmetry_equiv_pos_site_id
 _symmetry_equiv_pos_as_xyz
  1  'x, y, z'
loop_
 _atom_site_type_symbol
 _atom_site_label
 _atom_site_symmetry_multiplicity
 _atom_site_fract_x
 _atom_site_fract_y
 _atom_site_fract_z
 _atom_site_occupancy
  C  C0  1  0.38966048  0.25000110  0.41986213  1
  C  C1  1  0.88978509  0.24999137  0.08015869  1
  C  C2  1  0.61033379  0.75000522  0.58011426  1
  C  C3  1  0.11020659  0.75000232  0.91983723  1
  N  N4  1  0.54040359  0.25000080  0.51805638  1
  N  N5  1  0.04053124  0.24999595  0.98198292  1
  N  N6  1  0.45959479  0.74999600  0.48191310  1
  N  N7  1  0.95948193  0.75000179  0.01805124  1
  H  H8  1  0.41603570  0.24999860  0.28099426  1
  H  H9  1  0.32313143  0.17371895  0.45332493  1
  H  H10  1  0.32312899  0.32626907  0.45332763  1
  H  H11  1  0.60603445  0.17813462  0.48527187  1
  H  H12  1  0.60603278  0.32188814  0.48529180  1
  H  H13  1  0.51934194  0.24999768  0.65159501  1
  H  H14  1  0.91616239  0.25000493  0.21902838  1
  H  H15  1  0.82326425  0.17370682  0.04669821  1
  H  H16  1  0.82325285  0.32625901  0.04666827  1
  H  H17  1  0.10615500  0.17811962  0.01476017  1
  H  H18  1  0.10616277  0.32187191  0.01476971  1
  H  H19  1  0.01947297  0.24999873  0.84844042  1
  H  H20  1  0.58395172  0.75000440  0.71897944  1
  H  H21  1  0.67686977  0.67373834  0.54664848  1
  H  H22  1  0.67685922  0.82628852  0.54664954  1
  H  H23  1  0.39395898  0.82186371  0.51468104  1
  H  H24  1  0.39396690  0.67811311  0.51469686  1
  H  H25  1  0.48065901  0.74999124  0.34837447  1
  H  H26  1  0.08380684  0.75001046  0.78097777  1
  H  H27  1  0.17675391  0.82627411  0.95330570  1
  H  H28  1  0.17673244  0.67372142  0.95328959  1
  H  H29  1  0.89384727  0.82187721  0.98527051  1
  H  H30  1  0.89384466  0.67812180  0.98528659  1
  H  H31  1  0.98055676  0.75000867  0.15158225  1
  Ba  Ba32  1  0.50000184  0.00000124  0.99996683  1
  Ba  Ba33  1  0.00001264  0.50002163  0.50008196  1
  Ba  Ba34  1  0.99999344  0.00001816  0.49998760  1
  Ba  Ba35  1  0.50000633  0.49999230  0.00007863  1
  Cl  Cl36  1  0.45985999  0.25000213  0.91850866  1
  Cl  Cl37  1  0.17427912  0.02883538  0.15943361  1
  Cl  Cl38  1  0.67424941  0.02889778  0.34054660  1
  Cl  Cl39  1  0.95994134  0.25001212  0.58153026  1
  Cl  Cl40  1  0.32574348  0.97111112  0.65940142  1
  Cl  Cl41  1  0.82574384  0.97116218  0.84055316  1
  Cl  Cl42  1  0.54013230  0.75000637  0.08146357  1
  Cl  Cl43  1  0.67425051  0.47116234  0.34066432  1
  Cl  Cl44  1  0.17427544  0.47115468  0.15952697  1
  Cl  Cl45  1  0.04004963  0.75001507  0.41849917  1
  Cl  Cl46  1  0.32575551  0.52890135  0.65951508  1
  Cl  Cl47  1  0.82574843  0.52880875  0.84064992  1
