# generated using pymatgen
data_CuBH12C2(I3N)2
_symmetry_space_group_name_H-M   'P 1'
_cell_length_a   8.46228086
_cell_length_b   10.25097486
_cell_length_c   9.61280657
_cell_angle_alpha   96.61711660
_cell_angle_beta   89.94020884
_cell_angle_gamma   90.06145266
_symmetry_Int_Tables_number   1
_chemical_formula_structural   CuBH12C2(I3N)2
_chemical_formula_sum   'Cu2 B2 H24 C4 I12 N4'
_cell_volume   828.32274924
_cell_formula_units_Z   2
loop_
 _symmetry_equiv_pos_site_id
 _symmetry_equiv_pos_as_xyz
  1  'x, y, z'
loop_
 _atom_site_type_symbol
 _atom_site_label
 _atom_site_symmetry_multiplicity
 _atom_site_fract_x
 _atom_site_fract_y
 _atom_site_fract_z
 _atom_site_occupancy
  C  C0  1  0.50250364  0.25389465  0.44594220  1
  C  C1  1  0.99840936  0.24344316  0.05423879  1
  C  C2  1  0.52439647  0.72398281  0.57425242  1
  C  C3  1  0.02507129  0.77898108  0.92565697  1
  N  N4  1  0.53694851  0.25925700  0.59775900  1
  N  N5  1  0.03749440  0.24020626  0.90343130  1
  N  N6  1  0.47646369  0.78277642  0.44647744  1
  N  N7  1  0.97863224  0.71717597  0.05212615  1
  H  H8  1  0.61397101  0.25201056  0.38782008  1
  H  H9  1  0.43555755  0.16393987  0.41402151  1
  H  H10  1  0.43174243  0.33969012  0.42711163  1
  H  H11  1  0.60021111  0.17674205  0.62339686  1
  H  H12  1  0.60300173  0.34086463  0.63678594  1
  H  H13  1  0.43276232  0.26587099  0.65568118  1
  H  H14  1  0.10769282  0.25227649  0.11549926  1
  H  H15  1  0.93460903  0.15344377  0.07123361  1
  H  H16  1  0.92287878  0.32884957  0.08403842  1
  H  H17  1  0.11074490  0.16251456  0.86654838  1
  H  H18  1  0.09516503  0.32582000  0.87901446  1
  H  H19  1  0.93555119  0.22694404  0.84271794  1
  H  H20  1  0.41890385  0.68807460  0.62408556  1
  H  H21  1  0.60593605  0.64267834  0.54517424  1
  H  H22  1  0.58336307  0.80013581  0.64522541  1
  H  H23  1  0.39493545  0.85782130  0.47475971  1
  H  H24  1  0.42309815  0.71372519  0.37200893  1
  H  H25  1  0.57249249  0.82466915  0.39878422  1
  H  H26  1  0.91811238  0.80703827  0.87228790  1
  H  H27  1  0.09708625  0.86602072  0.95705805  1
  H  H28  1  0.09348936  0.70724544  0.85685615  1
  H  H29  1  0.92281084  0.78419989  0.12708061  1
  H  H30  1  0.89953120  0.64048839  0.02251335  1
  H  H31  1  0.07558668  0.67692466  0.09977760  1
  B  B32  1  0.41025613  0.99518252  0.07780924  1
  B  B33  1  0.91088797  0.50535852  0.42220755  1
  Cu  Cu34  1  0.94544437  0.97990889  0.53130240  1
  Cu  Cu35  1  0.44526825  0.51949064  0.96843179  1
  I  I36  1  0.48138179  0.18573802  0.03411587  1
  I  I37  1  0.23120755  0.98349055  0.23278087  1
  I  I38  1  0.79248900  0.96021003  0.29946840  1
  I  I39  1  0.98237033  0.31486021  0.46521966  1
  I  I40  1  0.22463586  0.01140567  0.63851631  1
  I  I41  1  0.75841234  0.02880246  0.73974271  1
  I  I42  1  0.50112709  0.81778980  0.97052447  1
  I  I43  1  0.73156609  0.51745574  0.26792115  1
  I  I44  1  0.29223975  0.53874194  0.20050347  1
  I  I45  1  0.00185474  0.68260527  0.53007165  1
  I  I46  1  0.25720901  0.47208250  0.76090417  1
  I  I47  1  0.72452020  0.48924974  0.86141162  1
