# generated using pymatgen
data_H6PtCNCl3
_symmetry_space_group_name_H-M   'P 1'
_cell_length_a   8.72203942
_cell_length_b   8.07176261
_cell_length_c   8.46077344
_cell_angle_alpha   89.99994380
_cell_angle_beta   90.02815231
_cell_angle_gamma   89.99746612
_symmetry_Int_Tables_number   1
_chemical_formula_structural   H6PtCNCl3
_chemical_formula_sum   'H24 Pt4 C4 N4 Cl12'
_cell_volume   595.65725959
_cell_formula_units_Z   4
loop_
 _symmetry_equiv_pos_site_id
 _symmetry_equiv_pos_as_xyz
  1  'x, y, z'
loop_
 _atom_site_type_symbol
 _atom_site_label
 _atom_site_symmetry_multiplicity
 _atom_site_fract_x
 _atom_site_fract_y
 _atom_site_fract_z
 _atom_site_occupancy
  C  C0  1  0.47521303  0.25119683  0.36004665  1
  C  C1  1  0.97540777  0.25128671  0.13989278  1
  C  C2  1  0.52491433  0.74872127  0.63981308  1
  C  C3  1  0.02441770  0.74879591  0.85987695  1
  N  N4  1  0.55061265  0.24970112  0.51714858  1
  N  N5  1  0.05107271  0.24973953  0.98301853  1
  N  N6  1  0.44957133  0.75026036  0.48268670  1
  N  N7  1  0.94879036  0.75029122  0.01677199  1
  H  H8  1  0.56441286  0.25190527  0.26907555  1
  H  H9  1  0.40311465  0.14126763  0.34774991  1
  H  H10  1  0.40341066  0.36155092  0.34956534  1
  H  H11  1  0.62224622  0.14676555  0.52492671  1
  H  H12  1  0.62271514  0.35205914  0.52645711  1
  H  H13  1  0.47231631  0.24923902  0.60881619  1
  H  H14  1  0.06446157  0.25199510  0.23110494  1
  H  H15  1  0.90328378  0.14135501  0.15199641  1
  H  H16  1  0.90361828  0.36165860  0.15013749  1
  H  H17  1  0.12273630  0.14681052  0.97550653  1
  H  H18  1  0.12315063  0.35212011  0.97387429  1
  H  H19  1  0.97299233  0.24920495  0.89105489  1
  H  H20  1  0.43569040  0.74803256  0.73075835  1
  H  H21  1  0.59667599  0.63833783  0.65026996  1
  H  H22  1  0.59703018  0.85863632  0.65210545  1
  H  H23  1  0.37794567  0.85318635  0.47487805  1
  H  H24  1  0.37750346  0.64790307  0.47326302  1
  H  H25  1  0.52791192  0.75077162  0.39104672  1
  H  H26  1  0.93533087  0.74804419  0.76869852  1
  H  H27  1  0.09649666  0.85875106  0.84771339  1
  H  H28  1  0.09625911  0.63845807  0.84956086  1
  H  H29  1  0.87710892  0.85321539  0.02429476  1
  H  H30  1  0.87670536  0.64789449  0.02585906  1
  H  H31  1  0.02689276  0.75080172  0.10871104  1
  Pt  Pt32  1  0.49978294  0.00004433  0.00021836  1
  Pt  Pt33  1  0.00021174  0.49997767  0.50023444  1
  Pt  Pt34  1  0.00021550  0.99998058  0.50023587  1
  Pt  Pt35  1  0.49978695  0.50003727  0.00024236  1
  Cl  Cl36  1  0.42186876  0.25005728  0.89269074  1
  Cl  Cl37  1  0.26390730  0.97328382  0.12241969  1
  Cl  Cl38  1  0.76419934  0.97355697  0.37805217  1
  Cl  Cl39  1  0.92241373  0.24998979  0.60784256  1
  Cl  Cl40  1  0.23624759  0.02636095  0.62242473  1
  Cl  Cl41  1  0.73564945  0.02683748  0.87803430  1
  Cl  Cl42  1  0.57783363  0.75003684  0.10767101  1
  Cl  Cl43  1  0.76407403  0.52660367  0.37845081  1
  Cl  Cl44  1  0.26379565  0.52698170  0.12204808  1
  Cl  Cl45  1  0.07788827  0.74997008  0.39255048  1
  Cl  Cl46  1  0.23635859  0.47339138  0.62202211  1
  Cl  Cl47  1  0.73578035  0.47301107  0.87847912  1
