# generated using pymatgen
data_H6AuCNCl3
_symmetry_space_group_name_H-M   'P 1'
_cell_length_a   7.28101517
_cell_length_b   10.56244645
_cell_length_c   8.08177986
_cell_angle_alpha   92.79187141
_cell_angle_beta   89.99258173
_cell_angle_gamma   90.00266496
_symmetry_Int_Tables_number   1
_chemical_formula_structural   H6AuCNCl3
_chemical_formula_sum   'H24 Au4 C4 N4 Cl12'
_cell_volume   620.79424201
_cell_formula_units_Z   4
loop_
 _symmetry_equiv_pos_site_id
 _symmetry_equiv_pos_as_xyz
  1  'x, y, z'
loop_
 _atom_site_type_symbol
 _atom_site_label
 _atom_site_symmetry_multiplicity
 _atom_site_fract_x
 _atom_site_fract_y
 _atom_site_fract_z
 _atom_site_occupancy
  C  C0  1  0.41789912  0.24554806  0.38285970  1
  C  C1  1  0.91777682  0.25448476  0.11708781  1
  C  C2  1  0.58209050  0.75446003  0.61715214  1
  C  C3  1  0.08222424  0.74551992  0.88293058  1
  N  N4  1  0.52771213  0.25790569  0.53725102  1
  N  N5  1  0.02767259  0.24210319  0.96272114  1
  N  N6  1  0.47228766  0.74210087  0.46275491  1
  N  N7  1  0.97233916  0.75789183  0.03730405  1
  H  H8  1  0.51208384  0.24062631  0.27749549  1
  H  H9  1  0.33639970  0.15896162  0.38400795  1
  H  H10  1  0.32947806  0.32875768  0.37678498  1
  H  H11  1  0.61612774  0.18182197  0.54476836  1
  H  H12  1  0.60693198  0.33974829  0.53583386  1
  H  H13  1  0.44732308  0.26348291  0.64293315  1
  H  H14  1  0.01190007  0.25938265  0.22247462  1
  H  H15  1  0.82929779  0.17129433  0.12313726  1
  H  H16  1  0.83633378  0.34108959  0.11592101  1
  H  H17  1  0.10684851  0.16024687  0.96416103  1
  H  H18  1  0.11614018  0.31816959  0.95522697  1
  H  H19  1  0.94734739  0.23654444  0.85701926  1
  H  H20  1  0.48789884  0.75937338  0.72251133  1
  H  H21  1  0.67052057  0.67125503  0.62322749  1
  H  H22  1  0.66358023  0.84105119  0.61601275  1
  H  H23  1  0.38387002  0.81818318  0.45523392  1
  H  H24  1  0.39307076  0.66025664  0.46416749  1
  H  H25  1  0.55268394  0.73652561  0.35707737  1
  H  H26  1  0.98809220  0.74062013  0.77754969  1
  H  H27  1  0.17069365  0.82871461  0.87687960  1
  H  H28  1  0.16367576  0.65891838  0.88408880  1
  H  H29  1  0.89315402  0.83974421  0.03587337  1
  H  H30  1  0.88388236  0.68182082  0.04480248  1
  H  H31  1  0.05267307  0.76345326  0.14300124  1
  Au  Au32  1  0.50000745  0.00000131  0.00000305  1
  Au  Au33  1  0.99999383  0.50000378  0.50000050  1
  Au  Au34  1  0.99999794  0.00000174  0.50000604  1
  Au  Au35  1  0.50000345  0.50000042  0.99999907  1
  Cl  Cl36  1  0.47468061  0.27986608  0.94326314  1
  Cl  Cl37  1  0.22013445  0.00581906  0.13305697  1
  Cl  Cl38  1  0.72476470  0.99800870  0.35047467  1
  Cl  Cl39  1  0.97470457  0.22014492  0.55669157  1
  Cl  Cl40  1  0.27523274  0.00199455  0.64953463  1
  Cl  Cl41  1  0.77988274  0.99418097  0.86695431  1
  Cl  Cl42  1  0.52532781  0.72013442  0.05673744  1
  Cl  Cl43  1  0.72016555  0.49423856  0.36692952  1
  Cl  Cl44  1  0.22474793  0.50197174  0.14956172  1
  Cl  Cl45  1  0.02529000  0.77985813  0.44332513  1
  Cl  Cl46  1  0.27982187  0.50576857  0.63307174  1
  Cl  Cl47  1  0.77525827  0.49802830  0.85043626  1
