# generated using pymatgen
data_HgH6CNCl3
_symmetry_space_group_name_H-M   'P 1'
_cell_length_a   6.73131864
_cell_length_b   11.59394421
_cell_length_c   8.05003625
_cell_angle_alpha   90.00036763
_cell_angle_beta   90.00080099
_cell_angle_gamma   90.00068937
_symmetry_Int_Tables_number   1
_chemical_formula_structural   HgH6CNCl3
_chemical_formula_sum   'Hg4 H24 C4 N4 Cl12'
_cell_volume   628.24521784
_cell_formula_units_Z   4
loop_
 _symmetry_equiv_pos_site_id
 _symmetry_equiv_pos_as_xyz
  1  'x, y, z'
loop_
 _atom_site_type_symbol
 _atom_site_label
 _atom_site_symmetry_multiplicity
 _atom_site_fract_x
 _atom_site_fract_y
 _atom_site_fract_z
 _atom_site_occupancy
  C  C0  1  0.42214264  0.24652234  0.35704145  1
  C  C1  1  0.92208755  0.24650855  0.14301823  1
  C  C2  1  0.57786156  0.74651590  0.64297815  1
  C  C3  1  0.07791743  0.74650156  0.85698591  1
  N  N4  1  0.49102581  0.26091794  0.53060249  1
  N  N5  1  0.99088048  0.26074546  0.96940542  1
  N  N6  1  0.50897589  0.76091851  0.46941967  1
  N  N7  1  0.00912119  0.76074478  0.03059623  1
  H  H8  1  0.54910703  0.25179464  0.27331638  1
  H  H9  1  0.35103083  0.16237982  0.34397652  1
  H  H10  1  0.31821774  0.31616178  0.32791976  1
  H  H11  1  0.62082822  0.21526342  0.55381919  1
  H  H12  1  0.52098305  0.34695929  0.55376222  1
  H  H13  1  0.38481955  0.23513058  0.61579674  1
  H  H14  1  0.04919226  0.25143538  0.22663671  1
  H  H15  1  0.85035984  0.16254311  0.15610998  1
  H  H16  1  0.81872332  0.31640957  0.17224032  1
  H  H17  1  0.12018419  0.21467848  0.94605300  1
  H  H18  1  0.02161531  0.34669238  0.94626922  1
  H  H19  1  0.88429881  0.23530384  0.88431624  1
  H  H20  1  0.45089759  0.75177606  0.72670611  1
  H  H21  1  0.64898554  0.66237680  0.65603038  1
  H  H22  1  0.68177696  0.81615975  0.67210767  1
  H  H23  1  0.47897519  0.84695592  0.44628029  1
  H  H24  1  0.37919142  0.71524449  0.44619485  1
  H  H25  1  0.61518975  0.73515433  0.38422119  1
  H  H26  1  0.95081140  0.75141335  0.77336638  1
  H  H27  1  0.18126887  0.81640817  0.82775493  1
  H  H28  1  0.14965945  0.66254024  0.84390567  1
  H  H29  1  0.97834822  0.84669034  0.05371406  1
  H  H30  1  0.87984033  0.71466084  0.05396040  1
  H  H31  1  0.11571642  0.73532972  0.11568902  1
  Hg  Hg32  1  0.52128324  0.96651239  0.01801793  1
  Hg  Hg33  1  0.97865761  0.46655575  0.51817339  1
  Hg  Hg34  1  0.02134458  0.96655739  0.48182603  1
  Hg  Hg35  1  0.47872151  0.46651258  0.98200927  1
  Cl  Cl36  1  0.47148152  0.24218437  0.92524003  1
  Cl  Cl37  1  0.20286895  0.00688424  0.14445215  1
  Cl  Cl38  1  0.70291284  0.00685007  0.35538160  1
  Cl  Cl39  1  0.97125874  0.24220320  0.57474571  1
  Cl  Cl40  1  0.31213813  0.99979004  0.64647434  1
  Cl  Cl41  1  0.81216333  0.99963831  0.85344188  1
  Cl  Cl42  1  0.52850973  0.74218529  0.07478148  1
  Cl  Cl43  1  0.68786138  0.49979380  0.35353514  1
  Cl  Cl44  1  0.18783682  0.49964143  0.14657485  1
  Cl  Cl45  1  0.02873655  0.74220531  0.42525853  1
  Cl  Cl46  1  0.29708553  0.50684547  0.64462822  1
  Cl  Cl47  1  0.79712943  0.50688129  0.85556127  1
