# generated using pymatgen
data_TlH6CNCl3
_symmetry_space_group_name_H-M   'P 1'
_cell_length_a   8.08261189
_cell_length_b   11.37929766
_cell_length_c   7.58665356
_cell_angle_alpha   94.46752240
_cell_angle_beta   89.99202520
_cell_angle_gamma   89.97672425
_symmetry_Int_Tables_number   1
_chemical_formula_structural   TlH6CNCl3
_chemical_formula_sum   'Tl4 H24 C4 N4 Cl12'
_cell_volume   695.65809837
_cell_formula_units_Z   4
loop_
 _symmetry_equiv_pos_site_id
 _symmetry_equiv_pos_as_xyz
  1  'x, y, z'
loop_
 _atom_site_type_symbol
 _atom_site_label
 _atom_site_symmetry_multiplicity
 _atom_site_fract_x
 _atom_site_fract_y
 _atom_site_fract_z
 _atom_site_occupancy
  C  C0  1  0.40429838  0.24353330  0.41307462  1
  C  C1  1  0.90465812  0.25630345  0.08689363  1
  C  C2  1  0.59569422  0.75647180  0.58694363  1
  C  C3  1  0.09534684  0.74369903  0.91311619  1
  N  N4  1  0.56004119  0.26068787  0.51528534  1
  N  N5  1  0.06031447  0.23927435  0.98441177  1
  N  N6  1  0.43995940  0.73931668  0.48471997  1
  N  N7  1  0.93969509  0.76072795  0.01560517  1
  H  H8  1  0.43354437  0.24212521  0.27201383  1
  H  H9  1  0.34746832  0.16057712  0.44425579  1
  H  H10  1  0.32181268  0.31753988  0.44978479  1
  H  H11  1  0.64041856  0.19056134  0.48504002  1
  H  H12  1  0.61629804  0.33811655  0.48206997  1
  H  H13  1  0.53773363  0.26654421  0.65140905  1
  H  H14  1  0.93412045  0.25789666  0.22790922  1
  H  H15  1  0.82244354  0.18213752  0.05050948  1
  H  H16  1  0.84743129  0.33913479  0.05562501  1
  H  H17  1  0.11682507  0.16189346  0.01752678  1
  H  H18  1  0.14053111  0.30946490  0.01452930  1
  H  H19  1  0.03782994  0.23339861  0.84832802  1
  H  H20  1  0.56643431  0.75788824  0.72800359  1
  H  H21  1  0.67817898  0.68246280  0.55025210  1
  H  H22  1  0.65253122  0.83942547  0.55576022  1
  H  H23  1  0.35958543  0.80944663  0.51494609  1
  H  H24  1  0.38369368  0.66189272  0.51794061  1
  H  H25  1  0.46227938  0.73345030  0.34859704  1
  H  H26  1  0.06587594  0.74210284  0.77210009  1
  H  H27  1  0.17756133  0.81786517  0.94949088  1
  H  H28  1  0.15257645  0.66086850  0.94438307  1
  H  H29  1  0.88318391  0.83811017  0.98249744  1
  H  H30  1  0.85947616  0.69053952  0.98549175  1
  H  H31  1  0.96218676  0.76660201  0.15168957  1
  Tl  Tl32  1  0.49999739  0.00000457  0.00000767  1
  Tl  Tl33  1  0.99999977  0.49999845  0.50000520  1
  Tl  Tl34  1  0.99999761  0.99999871  0.50000841  1
  Tl  Tl35  1  0.50000093  0.50000360  0.00000338  1
  Cl  Cl36  1  0.48174213  0.26737794  0.92837989  1
  Cl  Cl37  1  0.15285969  0.01545349  0.19301214  1
  Cl  Cl38  1  0.70924391  0.01188162  0.34526940  1
  Cl  Cl39  1  0.98129859  0.23262479  0.57157741  1
  Cl  Cl40  1  0.29075468  0.98811885  0.65474044  1
  Cl  Cl41  1  0.84713421  0.98454392  0.80700273  1
  Cl  Cl42  1  0.51826267  0.73262843  0.07162687  1
  Cl  Cl43  1  0.65275255  0.48455303  0.30706313  1
  Cl  Cl44  1  0.20911953  0.48803104  0.15447550  1
  Cl  Cl45  1  0.01869936  0.76737266  0.42844261  1
  Cl  Cl46  1  0.34724896  0.51545303  0.69294422  1
  Cl  Cl47  1  0.79088353  0.51197506  0.84553359  1
