# generated using pymatgen
data_H6PbCNCl3
_symmetry_space_group_name_H-M   'P 1'
_cell_length_a   7.97058573
_cell_length_b   11.28405212
_cell_length_c   7.60994349
_cell_angle_alpha   90.00026385
_cell_angle_beta   90.00618891
_cell_angle_gamma   90.00083777
_symmetry_Int_Tables_number   1
_chemical_formula_structural   H6PbCNCl3
_chemical_formula_sum   'H24 Pb4 C4 N4 Cl12'
_cell_volume   684.44215514
_cell_formula_units_Z   4
loop_
 _symmetry_equiv_pos_site_id
 _symmetry_equiv_pos_as_xyz
  1  'x, y, z'
loop_
 _atom_site_type_symbol
 _atom_site_label
 _atom_site_symmetry_multiplicity
 _atom_site_fract_x
 _atom_site_fract_y
 _atom_site_fract_z
 _atom_site_occupancy
  C  C0  1  0.39206150  0.25012536  0.41159097  1
  C  C1  1  0.89325044  0.25010342  0.08961430  1
  C  C2  1  0.60793544  0.74987995  0.58842221  1
  C  C3  1  0.10675555  0.74989664  0.91039939  1
  N  N4  1  0.54348137  0.25002266  0.52438973  1
  N  N5  1  0.04395169  0.25001771  0.97580122  1
  N  N6  1  0.45651558  0.74998211  0.47562390  1
  N  N7  1  0.95605532  0.74997936  0.02421377  1
  H  H8  1  0.43150262  0.25014563  0.27393688  1
  H  H9  1  0.31911586  0.17048003  0.43931439  1
  H  H10  1  0.31929259  0.32983467  0.43941452  1
  H  H11  1  0.61516466  0.17527399  0.49700891  1
  H  H12  1  0.61530429  0.32471557  0.49708552  1
  H  H13  1  0.51304557  0.25000953  0.65797392  1
  H  H14  1  0.93363983  0.25012206  0.22698447  1
  H  H15  1  0.82014509  0.17044152  0.06246639  1
  H  H16  1  0.82029184  0.32981885  0.06237860  1
  H  H17  1  0.11579188  0.17526843  0.00274601  1
  H  H18  1  0.11590918  0.32471801  0.00267896  1
  H  H19  1  0.01275403  0.25000472  0.84242632  1
  H  H20  1  0.56849457  0.74986273  0.72607671  1
  H  H21  1  0.68070281  0.67016944  0.56060202  1
  H  H22  1  0.68088253  0.82952410  0.56069642  1
  H  H23  1  0.38483162  0.82473054  0.50300555  1
  H  H24  1  0.38469315  0.67528851  0.50292886  1
  H  H25  1  0.48695081  0.74999605  0.34204017  1
  H  H26  1  0.06636497  0.74987968  0.77302959  1
  H  H27  1  0.17986133  0.82955788  0.93755018  1
  H  H28  1  0.17971429  0.67018068  0.93763133  1
  H  H29  1  0.88421297  0.82472775  0.99727164  1
  H  H30  1  0.88409964  0.67527861  0.99733615  1
  H  H31  1  0.98725432  0.74999223  0.15758921  1
  Pb  Pb32  1  0.50000287  0.00000632  0.00000894  1
  Pb  Pb33  1  0.99999431  0.50000050  0.49999507  1
  Pb  Pb34  1  0.00000113  0.00000138  0.50001092  1
  Pb  Pb35  1  0.49999722  0.50000776  0.99999418  1
  Cl  Cl36  1  0.46787796  0.25001012  0.93456023  1
  Cl  Cl37  1  0.18089869  0.01660541  0.17344556  1
  Cl  Cl38  1  0.68083120  0.01678746  0.32659156  1
  Cl  Cl39  1  0.96739583  0.25000070  0.56600232  1
  Cl  Cl40  1  0.31917563  0.98322010  0.67342766  1
  Cl  Cl41  1  0.81911009  0.98339275  0.82657103  1
  Cl  Cl42  1  0.53212487  0.75000860  0.06545260  1
  Cl  Cl43  1  0.68086028  0.48322563  0.32653492  1
  Cl  Cl44  1  0.18091667  0.48341751  0.17347099  1
  Cl  Cl45  1  0.03260033  0.74999917  0.43401421  1
  Cl  Cl46  1  0.31913516  0.51678019  0.67346016  1
  Cl  Cl47  1  0.81907414  0.51658627  0.82652805  1
