# generated using pymatgen
data_BeH12PbC2(NCl3)2
_symmetry_space_group_name_H-M   'P 1'
_cell_length_a   7.01863780
_cell_length_b   11.44882936
_cell_length_c   8.16476127
_cell_angle_alpha   94.30653463
_cell_angle_beta   90.00634397
_cell_angle_gamma   90.00975969
_symmetry_Int_Tables_number   1
_chemical_formula_structural   BeH12PbC2(NCl3)2
_chemical_formula_sum   'Be2 H24 Pb2 C4 N4 Cl12'
_cell_volume   654.22850567
_cell_formula_units_Z   2
loop_
 _symmetry_equiv_pos_site_id
 _symmetry_equiv_pos_as_xyz
  1  'x, y, z'
loop_
 _atom_site_type_symbol
 _atom_site_label
 _atom_site_symmetry_multiplicity
 _atom_site_fract_x
 _atom_site_fract_y
 _atom_site_fract_z
 _atom_site_occupancy
  C  C0  1  0.35223011  0.26657257  0.35285371  1
  C  C1  1  0.82482143  0.26243519  0.13745350  1
  C  C2  1  0.67515775  0.76250084  0.63741808  1
  C  C3  1  0.14768707  0.76657652  0.85278786  1
  N  N4  1  0.48317056  0.23978182  0.48718581  1
  N  N5  1  0.97730091  0.25209518  0.01110354  1
  N  N6  1  0.52233507  0.75209774  0.51134514  1
  N  N7  1  0.01717893  0.73970268  0.98736449  1
  H  H8  1  0.41249450  0.23373081  0.23467607  1
  H  H9  1  0.21391063  0.22553679  0.37245826  1
  H  H10  1  0.33069458  0.36113280  0.35582045  1
  H  H11  1  0.54113063  0.15628696  0.46858135  1
  H  H12  1  0.59414081  0.30053095  0.49390046  1
  H  H13  1  0.41922031  0.24506059  0.60307036  1
  H  H14  1  0.88824099  0.25465463  0.25881946  1
  H  H15  1  0.71964426  0.19334658  0.10939632  1
  H  H16  1  0.75963174  0.34902227  0.13512064  1
  H  H17  1  0.04954446  0.17352659  0.00963640  1
  H  H18  1  0.07502014  0.32061266  0.03250742  1
  H  H19  1  0.92478540  0.25731356  0.89217275  1
  H  H20  1  0.61210815  0.75463832  0.75889780  1
  H  H21  1  0.78036137  0.69349747  0.60911525  1
  H  H22  1  0.74021046  0.84913739  0.63500670  1
  H  H23  1  0.42465387  0.82059659  0.53284286  1
  H  H24  1  0.45009033  0.67351815  0.51004657  1
  H  H25  1  0.57455833  0.75727640  0.39231214  1
  H  H26  1  0.08698206  0.73386238  0.73470718  1
  H  H27  1  0.16934806  0.86113574  0.85588228  1
  H  H28  1  0.28601596  0.72545384  0.87196597  1
  H  H29  1  0.90616369  0.80039196  0.99430009  1
  H  H30  1  0.95925368  0.65618063  0.96884371  1
  H  H31  1  0.08144350  0.74500319  0.10312843  1
  Be  Be32  1  0.58935521  0.93007006  0.12631682  1
  Be  Be33  1  0.91075131  0.43016959  0.62609085  1
  Pb  Pb34  1  0.08545879  0.99363492  0.37386127  1
  Pb  Pb35  1  0.41454084  0.49363887  0.87398329  1
  Cl  Cl36  1  0.42085014  0.26614575  0.86949810  1
  Cl  Cl37  1  0.33035546  0.00418459  0.08729951  1
  Cl  Cl38  1  0.66464345  0.99113264  0.36212379  1
  Cl  Cl39  1  0.93132926  0.25320338  0.61836892  1
  Cl  Cl40  1  0.29801121  0.99253940  0.63939865  1
  Cl  Cl41  1  0.78883555  0.97745017  0.96818978  1
  Cl  Cl42  1  0.56865107  0.75310313  0.11854994  1
  Cl  Cl43  1  0.71146690  0.47758160  0.46782399  1
  Cl  Cl44  1  0.20174632  0.49240316  0.13934124  1
  Cl  Cl45  1  0.07922458  0.76614482  0.36959697  1
  Cl  Cl46  1  0.16991960  0.50424266  0.58729163  1
  Cl  Cl47  1  0.83535431  0.49122374  0.86184078  1
