# generated using pymatgen
data_BeTlH12C2(NCl3)2
_symmetry_space_group_name_H-M   'P 1'
_cell_length_a   8.24402615
_cell_length_b   10.47639933
_cell_length_c   7.46982669
_cell_angle_alpha   89.13323473
_cell_angle_beta   83.83778038
_cell_angle_gamma   89.38101302
_symmetry_Int_Tables_number   1
_chemical_formula_structural   BeTlH12C2(NCl3)2
_chemical_formula_sum   'Be2 Tl2 H24 C4 N4 Cl12'
_cell_volume   641.32337731
_cell_formula_units_Z   2
loop_
 _symmetry_equiv_pos_site_id
 _symmetry_equiv_pos_as_xyz
  1  'x, y, z'
loop_
 _atom_site_type_symbol
 _atom_site_label
 _atom_site_symmetry_multiplicity
 _atom_site_fract_x
 _atom_site_fract_y
 _atom_site_fract_z
 _atom_site_occupancy
  C  C0  1  0.43018075  0.25832195  0.43075497  1
  C  C1  1  0.94772763  0.23313622  0.05091993  1
  C  C2  1  0.56166731  0.74751812  0.56242286  1
  C  C3  1  0.06013803  0.76238436  0.96353898  1
  N  N4  1  0.58634723  0.21906425  0.49798595  1
  N  N5  1  0.10154834  0.25998811  0.93457942  1
  N  N6  1  0.40809437  0.77970529  0.48348474  1
  N  N7  1  0.90043504  0.74428283  0.07296738  1
  H  H8  1  0.44673256  0.25862718  0.28390315  1
  H  H9  1  0.33614362  0.18983790  0.47888648  1
  H  H10  1  0.39627994  0.35352904  0.47993229  1
  H  H11  1  0.62958808  0.13176550  0.44352802  1
  H  H12  1  0.67342897  0.28786062  0.45831650  1
  H  H13  1  0.57606083  0.21265396  0.63746484  1
  H  H14  1  0.97716205  0.21693428  0.18888130  1
  H  H15  1  0.88818730  0.14947200  0.00268436  1
  H  H16  1  0.86756416  0.31678024  0.04709308  1
  H  H17  1  0.17643972  0.17999074  0.91871736  1
  H  H18  1  0.16405609  0.33105940  0.99550212  1
  H  H19  1  0.07831357  0.29179168  0.80650715  1
  H  H20  1  0.54285936  0.76149636  0.70792102  1
  H  H21  1  0.59337623  0.64849481  0.53052883  1
  H  H22  1  0.65683515  0.81138733  0.50196880  1
  H  H23  1  0.36999242  0.87082979  0.52111119  1
  H  H24  1  0.31812430  0.71478565  0.52907697  1
  H  H25  1  0.42494965  0.77543762  0.34331767  1
  H  H26  1  0.03900789  0.77187248  0.82160663  1
  H  H27  1  0.12005076  0.84722556  0.00841649  1
  H  H28  1  0.13589330  0.67768347  0.98094412  1
  H  H29  1  0.83064531  0.82777281  0.08249596  1
  H  H30  1  0.83245717  0.67564850  0.01738644  1
  H  H31  1  0.91685400  0.71485567  0.20402350  1
  Be  Be32  1  0.47347432  0.04254360  0.93729757  1
  Be  Be33  1  0.88232528  0.49531831  0.51661821  1
  Tl  Tl34  1  0.99183092  0.99325689  0.52506986  1
  Tl  Tl35  1  0.47177388  0.50034190  0.95143991  1
  Cl  Cl36  1  0.54349501  0.25044234  0.93389412  1
  Cl  Cl37  1  0.34149068  0.01250382  0.17049087  1
  Cl  Cl38  1  0.75227560  0.98785253  0.29400745  1
  Cl  Cl39  1  0.99488171  0.32384793  0.53838180  1
  Cl  Cl40  1  0.32368408  0.02247051  0.74382774  1
  Cl  Cl41  1  0.69685109  0.97872088  0.84986577  1
  Cl  Cl42  1  0.50822375  0.72385291  0.06667338  1
  Cl  Cl43  1  0.72413024  0.48002404  0.33420699  1
  Cl  Cl44  1  0.23018989  0.46150393  0.18723778  1
  Cl  Cl45  1  0.00269433  0.66323157  0.47227115  1
  Cl  Cl46  1  0.29492662  0.52110755  0.69559010  1
  Cl  Cl47  1  0.78063518  0.52086587  0.79655535  1
