# generated using pymatgen
data_BeHgH12C2(NCl3)2
_symmetry_space_group_name_H-M   'P 1'
_cell_length_a   6.24762812
_cell_length_b   11.54743638
_cell_length_c   8.68002690
_cell_angle_alpha   93.22925819
_cell_angle_beta   89.97974719
_cell_angle_gamma   89.95968200
_symmetry_Int_Tables_number   1
_chemical_formula_structural   BeHgH12C2(NCl3)2
_chemical_formula_sum   'Be2 Hg2 H24 C4 N4 Cl12'
_cell_volume   625.21807913
_cell_formula_units_Z   2
loop_
 _symmetry_equiv_pos_site_id
 _symmetry_equiv_pos_as_xyz
  1  'x, y, z'
loop_
 _atom_site_type_symbol
 _atom_site_label
 _atom_site_symmetry_multiplicity
 _atom_site_fract_x
 _atom_site_fract_y
 _atom_site_fract_z
 _atom_site_occupancy
  C  C0  1  0.29996113  0.26013373  0.35224257  1
  C  C1  1  0.79988638  0.26270622  0.14575430  1
  C  C2  1  0.70042222  0.76288415  0.64574268  1
  C  C3  1  0.20006880  0.76035379  0.85218347  1
  N  N4  1  0.41331748  0.25827235  0.50162131  1
  N  N5  1  0.90684498  0.25756329  0.99340034  1
  N  N6  1  0.59259011  0.75772507  0.49376401  1
  N  N7  1  0.08755632  0.75815194  0.00191136  1
  H  H8  1  0.41483910  0.25248345  0.25749265  1
  H  H9  1  0.18921768  0.18692618  0.34317350  1
  H  H10  1  0.21387162  0.34248764  0.34864296  1
  H  H11  1  0.50285753  0.18391223  0.51212148  1
  H  H12  1  0.51490966  0.32991246  0.51415634  1
  H  H13  1  0.30431462  0.26083896  0.59208172  1
  H  H14  1  0.91927061  0.26606446  0.23754234  1
  H  H15  1  0.70078157  0.18534359  0.15224165  1
  H  H16  1  0.70345480  0.34189283  0.15642157  1
  H  H17  1  0.01627626  0.19071625  0.97932117  1
  H  H18  1  0.98701839  0.33477603  0.97951407  1
  H  H19  1  0.79444898  0.24577391  0.90542254  1
  H  H20  1  0.58156246  0.76634173  0.73795501  1
  H  H21  1  0.79972622  0.68549825  0.65193810  1
  H  H22  1  0.79677487  0.84203567  0.65598597  1
  H  H23  1  0.51208051  0.83494727  0.48020628  1
  H  H24  1  0.48327789  0.69087724  0.48005383  1
  H  H25  1  0.70442855  0.74594518  0.40535064  1
  H  H26  1  0.08465946  0.75300933  0.75782914  1
  H  H27  1  0.28597642  0.84270420  0.84865825  1
  H  H28  1  0.31087583  0.68710703  0.84235780  1
  H  H29  1  0.98545820  0.82961640  0.01487141  1
  H  H30  1  0.99874513  0.68361386  0.01261713  1
  H  H31  1  0.19708522  0.76082031  0.09199403  1
  Be  Be32  1  0.60880282  0.93139997  0.12474098  1
  Be  Be33  1  0.89097326  0.43144595  0.62466410  1
  Hg  Hg34  1  0.12058770  0.93866663  0.38203898  1
  Hg  Hg35  1  0.37898525  0.43868550  0.88209051  1
  Cl  Cl36  1  0.41575036  0.22400398  0.87254370  1
  Cl  Cl37  1  0.30599489  0.00344066  0.12442134  1
  Cl  Cl38  1  0.73441918  0.00609584  0.33438729  1
  Cl  Cl39  1  0.91269454  0.25953330  0.62766360  1
  Cl  Cl40  1  0.32563875  0.99664596  0.61234424  1
  Cl  Cl41  1  0.78444757  0.97951188  0.94970800  1
  Cl  Cl42  1  0.58752406  0.75946242  0.12780927  1
  Cl  Cl43  1  0.71551749  0.47968497  0.44959444  1
  Cl  Cl44  1  0.17330942  0.49641454  0.11235782  1
  Cl  Cl45  1  0.08430921  0.72403052  0.37260727  1
  Cl  Cl46  1  0.19363793  0.50346649  0.62447679  1
  Cl  Cl47  1  0.76487230  0.50615464  0.83427863  1
