# generated using pymatgen
data_BeH12PtC2(NCl3)2
_symmetry_space_group_name_H-M   'P 1'
_cell_length_a   6.77959369
_cell_length_b   10.40787687
_cell_length_c   8.42144711
_cell_angle_alpha   96.82254910
_cell_angle_beta   89.99230557
_cell_angle_gamma   90.00627643
_symmetry_Int_Tables_number   1
_chemical_formula_structural   BeH12PtC2(NCl3)2
_chemical_formula_sum   'Be2 H24 Pt2 C4 N4 Cl12'
_cell_volume   590.01938474
_cell_formula_units_Z   2
loop_
 _symmetry_equiv_pos_site_id
 _symmetry_equiv_pos_as_xyz
  1  'x, y, z'
loop_
 _atom_site_type_symbol
 _atom_site_label
 _atom_site_symmetry_multiplicity
 _atom_site_fract_x
 _atom_site_fract_y
 _atom_site_fract_z
 _atom_site_occupancy
  C  C0  1  0.34629443  0.24520443  0.34891462  1
  C  C1  1  0.89047024  0.27134248  0.13397048  1
  C  C2  1  0.60947668  0.77144337  0.63400244  1
  C  C3  1  0.15373122  0.74520240  0.84897893  1
  N  N4  1  0.42773005  0.25341300  0.51225637  1
  N  N5  1  0.00999238  0.24237258  0.98646022  1
  N  N6  1  0.48974227  0.74235273  0.48664620  1
  N  N7  1  0.07245905  0.75337810  0.01238788  1
  H  H8  1  0.46619869  0.22729175  0.26262130  1
  H  H9  1  0.24119148  0.16486621  0.33328254  1
  H  H10  1  0.27621759  0.33754531  0.33460940  1
  H  H11  1  0.48737729  0.16642961  0.53506618  1
  H  H12  1  0.53585063  0.32484371  0.52569548  1
  H  H13  1  0.32175539  0.27895508  0.59807789  1
  H  H14  1  0.98368517  0.26349312  0.23799109  1
  H  H15  1  0.76984475  0.20150201  0.13033124  1
  H  H16  1  0.83176456  0.36945891  0.13851719  1
  H  H17  1  0.07082176  0.15072625  0.97723706  1
  H  H18  1  0.12560336  0.30779766  0.98338227  1
  H  H19  1  0.92518475  0.24602216  0.88452685  1
  H  H20  1  0.51644277  0.76360259  0.73814942  1
  H  H21  1  0.73016986  0.70166314  0.63026487  1
  H  H22  1  0.66809570  0.86958145  0.63841201  1
  H  H23  1  0.37410743  0.80775286  0.48361076  1
  H  H24  1  0.42889090  0.65070943  0.47761034  1
  H  H25  1  0.57438860  0.74592783  0.38459154  1
  H  H26  1  0.03375072  0.72722121  0.76278873  1
  H  H27  1  0.22370389  0.83757143  0.83460003  1
  H  H28  1  0.25888953  0.66491000  0.83327317  1
  H  H29  1  0.96422751  0.82472023  0.02589079  1
  H  H30  1  0.01304443  0.66635155  0.03530734  1
  H  H31  1  0.17850123  0.77906070  0.09810184  1
  Be  Be32  1  0.59600890  0.93145350  0.09708104  1
  Be  Be33  1  0.90409731  0.43152224  0.59707096  1
  Pt  Pt34  1  0.96966767  0.01105814  0.48243389  1
  Pt  Pt35  1  0.53032379  0.51101272  0.98241273  1
  Cl  Cl36  1  0.47009836  0.29991661  0.88929317  1
  Cl  Cl37  1  0.32952269  0.99522950  0.08003569  1
  Cl  Cl38  1  0.67350074  0.00500055  0.33719993  1
  Cl  Cl39  1  0.89421272  0.22257709  0.61188199  1
  Cl  Cl40  1  0.24607203  0.01106399  0.63967619  1
  Cl  Cl41  1  0.78719727  0.97235394  0.93871143  1
  Cl  Cl42  1  0.60572376  0.72251241  0.11199004  1
  Cl  Cl43  1  0.71303057  0.47250009  0.43869860  1
  Cl  Cl44  1  0.25381240  0.51092265  0.13958192  1
  Cl  Cl45  1  0.02995080  0.79996222  0.38938158  1
  Cl  Cl46  1  0.17067645  0.49522428  0.58010364  1
  Cl  Cl47  1  0.82652395  0.50505505  0.83718735  1
