# generated using pymatgen
data_HfBeH12C2(NCl3)2
_symmetry_space_group_name_H-M   'P 1'
_cell_length_a   6.43589181
_cell_length_b   11.77183597
_cell_length_c   8.27578973
_cell_angle_alpha   82.92115374
_cell_angle_beta   89.96832789
_cell_angle_gamma   89.80738154
_symmetry_Int_Tables_number   1
_chemical_formula_structural   HfBeH12C2(NCl3)2
_chemical_formula_sum   'Hf2 Be2 H24 C4 N4 Cl12'
_cell_volume   622.20978604
_cell_formula_units_Z   2
loop_
 _symmetry_equiv_pos_site_id
 _symmetry_equiv_pos_as_xyz
  1  'x, y, z'
loop_
 _atom_site_type_symbol
 _atom_site_label
 _atom_site_symmetry_multiplicity
 _atom_site_fract_x
 _atom_site_fract_y
 _atom_site_fract_z
 _atom_site_occupancy
  C  C0  1  0.35435742  0.26745297  0.33776480  1
  C  C1  1  0.84008192  0.25748211  0.14703437  1
  C  C2  1  0.65992821  0.75733381  0.64723326  1
  C  C3  1  0.14572282  0.76777343  0.83774771  1
  N  N4  1  0.47289042  0.25915519  0.49201897  1
  N  N5  1  0.99981088  0.24698947  0.02095923  1
  N  N6  1  0.50017472  0.74694650  0.52134370  1
  N  N7  1  0.02902440  0.75938359  0.99286602  1
  H  H8  1  0.46287443  0.27247090  0.23552690  1
  H  H9  1  0.25501283  0.19187013  0.34007342  1
  H  H10  1  0.25855362  0.34501212  0.32876878  1
  H  H11  1  0.56889530  0.18817355  0.50753024  1
  H  H12  1  0.56262533  0.33289947  0.49858090  1
  H  H13  1  0.37259364  0.25009920  0.59087771  1
  H  H14  1  0.91399741  0.27688960  0.25953764  1
  H  H15  1  0.75391056  0.17668632  0.17072220  1
  H  H16  1  0.73536956  0.32816351  0.10339939  1
  H  H17  1  0.09655302  0.17943685  0.05992128  1
  H  H18  1  0.91827240  0.42982342  0.80691303  1
  H  H19  1  0.92687527  0.22003768  0.92111777  1
  H  H20  1  0.58590076  0.77655854  0.75992812  1
  H  H21  1  0.74722489  0.67657867  0.67058624  1
  H  H22  1  0.76364628  0.82809009  0.60358004  1
  H  H23  1  0.58034531  0.92946470  0.30759785  1
  H  H24  1  0.40421794  0.67939313  0.56036904  1
  H  H25  1  0.57333818  0.71999797  0.42138320  1
  H  H26  1  0.03603039  0.77326241  0.73629105  1
  H  H27  1  0.24117531  0.84512341  0.82838655  1
  H  H28  1  0.24527103  0.69198121  0.83899965  1
  H  H29  1  0.93839317  0.83304919  0.00003911  1
  H  H30  1  0.93421418  0.68826948  0.00914594  1
  H  H31  1  0.13061104  0.75043493  0.09087826  1
  Be  Be32  1  0.56866401  0.91390948  0.13424309  1
  Be  Be33  1  0.93069912  0.41410725  0.63365700  1
  Hf  Hf34  1  0.30008339  0.89835940  0.39572556  1
  Hf  Hf35  1  0.19859043  0.39817816  0.89511235  1
  Cl  Cl36  1  0.43010860  0.23829999  0.88065193  1
  Cl  Cl37  1  0.27122826  0.98809804  0.10772009  1
  Cl  Cl38  1  0.99197178  0.00758131  0.43644289  1
  Cl  Cl39  1  0.97543357  0.24723392  0.63335289  1
  Cl  Cl40  1  0.44663539  0.99556621  0.60674802  1
  Cl  Cl41  1  0.76926202  0.98801121  0.98332897  1
  Cl  Cl42  1  0.52598111  0.74709424  0.13324947  1
  Cl  Cl43  1  0.72965455  0.48799159  0.48234175  1
  Cl  Cl44  1  0.05056390  0.49544864  0.10617314  1
  Cl  Cl45  1  0.07038089  0.73863806  0.38096489  1
  Cl  Cl46  1  0.22746713  0.48806224  0.60724709  1
  Cl  Cl47  1  0.50540694  0.50721498  0.93621507  1
