# generated using pymatgen
data_ScBH12C2(I3N)2
_symmetry_space_group_name_H-M   'P 1'
_cell_length_a   8.32402725
_cell_length_b   11.72290256
_cell_length_c   8.22445482
_cell_angle_alpha   92.18850882
_cell_angle_beta   88.96433524
_cell_angle_gamma   91.34141805
_symmetry_Int_Tables_number   1
_chemical_formula_structural   ScBH12C2(I3N)2
_chemical_formula_sum   'Sc2 B2 H24 C4 I12 N4'
_cell_volume   801.63303146
_cell_formula_units_Z   2
loop_
 _symmetry_equiv_pos_site_id
 _symmetry_equiv_pos_as_xyz
  1  'x, y, z'
loop_
 _atom_site_type_symbol
 _atom_site_label
 _atom_site_symmetry_multiplicity
 _atom_site_fract_x
 _atom_site_fract_y
 _atom_site_fract_z
 _atom_site_occupancy
  C  C0  1  0.42579149  0.25032116  0.43002622  1
  C  C1  1  0.92160479  0.24611855  0.07609451  1
  C  C2  1  0.57801875  0.74893064  0.57850103  1
  C  C3  1  0.08157644  0.74932033  0.92737077  1
  N  N4  1  0.56701988  0.25040391  0.53731959  1
  N  N5  1  0.06510006  0.24407188  0.96676457  1
  N  N6  1  0.43699450  0.74453069  0.47069717  1
  N  N7  1  0.93666614  0.75462135  0.03452623  1
  H  H8  1  0.46818192  0.24851448  0.30331034  1
  H  H9  1  0.35164308  0.17414433  0.45192682  1
  H  H10  1  0.35720342  0.32726949  0.45749696  1
  H  H11  1  0.63553795  0.17866593  0.51038827  1
  H  H12  1  0.64059205  0.32161831  0.52014423  1
  H  H13  1  0.53418381  0.25007405  0.66033894  1
  H  H14  1  0.96180747  0.25128394  0.20220315  1
  H  H15  1  0.85033996  0.16779185  0.05370732  1
  H  H16  1  0.85201024  0.32104649  0.05027964  1
  H  H17  1  0.13361845  0.17362082  0.98816437  1
  H  H18  1  0.13693528  0.31652880  0.98947818  1
  H  H19  1  0.03506421  0.24134803  0.84372202  1
  H  H20  1  0.53545041  0.75563574  0.70507858  1
  H  H21  1  0.64560523  0.67070514  0.55790720  1
  H  H22  1  0.65244979  0.82374966  0.55002526  1
  H  H23  1  0.36753578  0.81604160  0.49224269  1
  H  H24  1  0.36448724  0.67349567  0.49338312  1
  H  H25  1  0.46945513  0.74170945  0.34712338  1
  H  H26  1  0.04310084  0.74461972  0.80069613  1
  H  H27  1  0.15559075  0.82625992  0.95054792  1
  H  H28  1  0.14805346  0.67316665  0.95415411  1
  H  H29  1  0.87052505  0.82606617  0.01104325  1
  H  H30  1  0.86261301  0.68323070  0.01217453  1
  H  H31  1  0.96554456  0.75815260  0.15756258  1
  B  B32  1  0.44787211  0.03273677  0.95551584  1
  B  B33  1  0.96968849  0.52841624  0.42607298  1
  Sc  Sc34  1  0.98249887  0.00925938  0.49775122  1
  Sc  Sc35  1  0.50043228  0.51139683  0.98413514  1
  I  I36  1  0.49579622  0.24721702  0.96490342  1
  I  I37  1  0.19746106  0.00752961  0.21090213  1
  I  I38  1  0.70755943  0.00346577  0.31203455  1
  I  I39  1  0.99700001  0.24624009  0.54334567  1
  I  I40  1  0.30003889  0.99505584  0.69793520  1
  I  I41  1  0.81452217  0.98493203  0.79697158  1
  I  I42  1  0.50836101  0.74611852  0.04636749  1
  I  I43  1  0.70158071  0.49121921  0.29750842  1
  I  I44  1  0.21265965  0.48525881  0.20007478  1
  I  I45  1  0.01000586  0.74842228  0.45915582  1
  I  I46  1  0.30970918  0.50599496  0.71108367  1
  I  I47  1  0.79453663  0.50375686  0.81213966  1
