# generated using pymatgen
data_BaBeH12C2(NCl3)2
_symmetry_space_group_name_H-M   'P 1'
_cell_length_a   8.41791747
_cell_length_b   9.54787997
_cell_length_c   8.15455445
_cell_angle_alpha   85.32904380
_cell_angle_beta   90.20450208
_cell_angle_gamma   90.20385507
_symmetry_Int_Tables_number   1
_chemical_formula_structural   BaBeH12C2(NCl3)2
_chemical_formula_sum   'Ba2 Be2 H24 C4 N4 Cl12'
_cell_volume   653.22375398
_cell_formula_units_Z   2
loop_
 _symmetry_equiv_pos_site_id
 _symmetry_equiv_pos_as_xyz
  1  'x, y, z'
loop_
 _atom_site_type_symbol
 _atom_site_label
 _atom_site_symmetry_multiplicity
 _atom_site_fract_x
 _atom_site_fract_y
 _atom_site_fract_z
 _atom_site_occupancy
  C  C0  1  0.44740401  0.29039995  0.46950465  1
  C  C1  1  0.94355585  0.21162361  0.03620746  1
  C  C2  1  0.57176298  0.72467802  0.54613452  1
  C  C3  1  0.06946455  0.77134785  0.94786441  1
  N  N4  1  0.58498603  0.24107921  0.57266267  1
  N  N5  1  0.08070686  0.25941057  0.93189237  1
  N  N6  1  0.40712831  0.75579156  0.48865437  1
  N  N7  1  0.90499649  0.74436228  0.00796570  1
  H  H8  1  0.47823600  0.28104404  0.34063591  1
  H  H9  1  0.34678610  0.22125705  0.50272915  1
  H  H10  1  0.41798530  0.39788008  0.49459762  1
  H  H11  1  0.62147733  0.14344078  0.54070350  1
  H  H12  1  0.68172074  0.30828309  0.55895225  1
  H  H13  1  0.55687080  0.22733422  0.69712882  1
  H  H14  1  0.97506263  0.22411520  0.16452406  1
  H  H15  1  0.91381494  0.10326612  0.01446055  1
  H  H16  1  0.84285231  0.27968478  0.00106044  1
  H  H17  1  0.17689915  0.19224104  0.94749447  1
  H  H18  1  0.11828525  0.35766120  0.96169313  1
  H  H19  1  0.05174120  0.27118909  0.80740792  1
  H  H20  1  0.57907324  0.74217314  0.67679753  1
  H  H21  1  0.60197917  0.61593322  0.52776220  1
  H  H22  1  0.65311509  0.79642991  0.47725046  1
  H  H23  1  0.36742180  0.84951845  0.53586601  1
  H  H24  1  0.33115984  0.67635679  0.53819665  1
  H  H25  1  0.39795303  0.76672925  0.36201953  1
  H  H26  1  0.07342929  0.75103955  0.81785752  1
  H  H27  1  0.10374045  0.87995161  0.96307931  1
  H  H28  1  0.14958756  0.69895755  0.01734729  1
  H  H29  1  0.83096370  0.82505015  0.95820809  1
  H  H30  1  0.86179623  0.65084197  0.96239766  1
  H  H31  1  0.89806042  0.73473567  0.13471652  1
  Be  Be32  1  0.48511704  0.01495293  0.12503530  1
  Be  Be33  1  0.98619913  0.48592003  0.37494794  1
  Ba  Ba34  1  0.99658873  0.99914216  0.47832406  1
  Ba  Ba35  1  0.49494691  0.50241331  0.02125101  1
  Cl  Cl36  1  0.49700567  0.18714084  0.96287626  1
  Cl  Cl37  1  0.26216760  0.02419691  0.21936885  1
  Cl  Cl38  1  0.66629804  0.03338973  0.29079624  1
  Cl  Cl39  1  0.99760872  0.31422808  0.53817513  1
  Cl  Cl40  1  0.28117066  0.99682240  0.68482828  1
  Cl  Cl41  1  0.78648146  0.98777092  0.76027922  1
  Cl  Cl42  1  0.50592517  0.81912019  0.04891732  1
  Cl  Cl43  1  0.76430833  0.47490728  0.27740879  1
  Cl  Cl44  1  0.16906970  0.46739556  0.21232522  1
  Cl  Cl45  1  0.00583676  0.68270297  0.44894254  1
  Cl  Cl46  1  0.28355763  0.51466174  0.73975622  1
  Cl  Cl47  1  0.77772552  0.50150619  0.81329144  1
