# generated using pymatgen
data_BeSnH12C2(NCl3)2
_symmetry_space_group_name_H-M   'P 1'
_cell_length_a   7.15511181
_cell_length_b   11.26281585
_cell_length_c   8.07554757
_cell_angle_alpha   92.83357353
_cell_angle_beta   90.01066370
_cell_angle_gamma   89.98060475
_symmetry_Int_Tables_number   1
_chemical_formula_structural   BeSnH12C2(NCl3)2
_chemical_formula_sum   'Be2 Sn2 H24 C4 N4 Cl12'
_cell_volume   649.98605292
_cell_formula_units_Z   2
loop_
 _symmetry_equiv_pos_site_id
 _symmetry_equiv_pos_as_xyz
  1  'x, y, z'
loop_
 _atom_site_type_symbol
 _atom_site_label
 _atom_site_symmetry_multiplicity
 _atom_site_fract_x
 _atom_site_fract_y
 _atom_site_fract_z
 _atom_site_occupancy
  C  C0  1  0.36004872  0.27162304  0.35594311  1
  C  C1  1  0.82353445  0.26238066  0.13805477  1
  C  C2  1  0.67680029  0.76238167  0.63782130  1
  C  C3  1  0.13974796  0.77172366  0.85571876  1
  N  N4  1  0.49668225  0.24109880  0.48489339  1
  N  N5  1  0.97532540  0.24372600  0.01395881  1
  N  N6  1  0.52479842  0.74381104  0.51388685  1
  N  N7  1  0.00329326  0.74109871  0.98469485  1
  H  H8  1  0.41058056  0.23894413  0.23418899  1
  H  H9  1  0.22475334  0.23129995  0.38317454  1
  H  H10  1  0.34224601  0.36791380  0.35881114  1
  H  H11  1  0.55079173  0.15593821  0.46381963  1
  H  H12  1  0.60673452  0.30184029  0.48619193  1
  H  H13  1  0.44006392  0.24580832  0.60406982  1
  H  H14  1  0.88009507  0.25018420  0.26216670  1
  H  H15  1  0.71225667  0.19817865  0.10902353  1
  H  H16  1  0.77235957  0.35346222  0.13135647  1
  H  H17  1  0.03499079  0.16049453  0.01864203  1
  H  H18  1  0.07858983  0.30805893  0.03271384  1
  H  H19  1  0.92819832  0.25028066  0.89202407  1
  H  H20  1  0.62050524  0.75007945  0.76197255  1
  H  H21  1  0.78813596  0.69824556  0.60855342  1
  H  H22  1  0.72778960  0.85350295  0.63119230  1
  H  H23  1  0.42148770  0.80810091  0.53281208  1
  H  H24  1  0.46528410  0.66052210  0.51856483  1
  H  H25  1  0.57169740  0.75039497  0.39191383  1
  H  H26  1  0.08906648  0.73920398  0.73393597  1
  H  H27  1  0.15752711  0.86801344  0.85879958  1
  H  H28  1  0.27509087  0.73131788  0.88273547  1
  H  H29  1  0.89315885  0.80182060  0.98611572  1
  H  H30  1  0.94927700  0.65593320  0.96357228  1
  H  H31  1  0.06003938  0.74575245  0.10384179  1
  Be  Be32  1  0.58823588  0.92944053  0.12631968  1
  Be  Be33  1  0.91158809  0.42940475  0.62644030  1
  Sn  Sn34  1  0.09198184  0.99684913  0.37646475  1
  Sn  Sn35  1  0.40790097  0.49685495  0.87654527  1
  Cl  Cl36  1  0.41512599  0.27453219  0.87153178  1
  Cl  Cl37  1  0.32930829  0.00405715  0.09358799  1
  Cl  Cl38  1  0.67100180  0.98892986  0.35869823  1
  Cl  Cl39  1  0.93046450  0.24990510  0.62072559  1
  Cl  Cl40  1  0.29926876  0.99440093  0.62912465  1
  Cl  Cl41  1  0.77237508  0.98039451  0.95600273  1
  Cl  Cl42  1  0.56949562  0.74994623  0.12059850  1
  Cl  Cl43  1  0.72733242  0.48034303  0.45607845  1
  Cl  Cl44  1  0.20069905  0.49441564  0.12917715  1
  Cl  Cl45  1  0.08504970  0.77452739  0.37134495  1
  Cl  Cl46  1  0.17038944  0.50402673  0.59368855  1
  Cl  Cl47  1  0.82885553  0.48891520  0.85880367  1
