# generated using pymatgen
data_BeInH12C2(NCl3)2
_symmetry_space_group_name_H-M   'P 1'
_cell_length_a   8.06375932
_cell_length_b   10.62555148
_cell_length_c   7.63009581
_cell_angle_alpha   89.01542268
_cell_angle_beta   85.29394028
_cell_angle_gamma   89.03209139
_symmetry_Int_Tables_number   1
_chemical_formula_structural   BeInH12C2(NCl3)2
_chemical_formula_sum   'Be2 In2 H24 C4 N4 Cl12'
_cell_volume   651.38217700
_cell_formula_units_Z   2
loop_
 _symmetry_equiv_pos_site_id
 _symmetry_equiv_pos_as_xyz
  1  'x, y, z'
loop_
 _atom_site_type_symbol
 _atom_site_label
 _atom_site_symmetry_multiplicity
 _atom_site_fract_x
 _atom_site_fract_y
 _atom_site_fract_z
 _atom_site_occupancy
  C  C0  1  0.42668432  0.25001196  0.43715527  1
  C  C1  1  0.94275714  0.24442173  0.06690822  1
  C  C2  1  0.56765316  0.75298218  0.56727567  1
  C  C3  1  0.06065425  0.75638338  0.93598143  1
  N  N4  1  0.57789296  0.23819807  0.53519091  1
  N  N5  1  0.09991700  0.25662154  0.95154608  1
  N  N6  1  0.41648847  0.75943551  0.46826708  1
  N  N7  1  0.90456555  0.74712024  0.05335009  1
  H  H8  1  0.46483607  0.24987827  0.29635460  1
  H  H9  1  0.34820685  0.16904308  0.47111816  1
  H  H10  1  0.36090879  0.33757703  0.47313471  1
  H  H11  1  0.64016655  0.15443202  0.50060006  1
  H  H12  1  0.65693831  0.31190080  0.49898495  1
  H  H13  1  0.55189442  0.24061290  0.67148078  1
  H  H14  1  0.97467891  0.23945471  0.20362712  1
  H  H15  1  0.87626423  0.16033045  0.03387188  1
  H  H16  1  0.86559994  0.32835063  0.04773089  1
  H  H17  1  0.17356020  0.17605703  0.95453016  1
  H  H18  1  0.16846571  0.33012146  0.99855216  1
  H  H19  1  0.07707001  0.27809186  0.82251073  1
  H  H20  1  0.52969986  0.75568075  0.70794310  1
  H  H21  1  0.63449250  0.66524685  0.53510230  1
  H  H22  1  0.64416307  0.83414217  0.52863063  1
  H  H23  1  0.35428705  0.84374065  0.49301294  1
  H  H24  1  0.33830010  0.68583974  0.50887992  1
  H  H25  1  0.44467668  0.75235011  0.33244586  1
  H  H26  1  0.02761899  0.76124527  0.79951103  1
  H  H27  1  0.12946049  0.83967886  0.96817997  1
  H  H28  1  0.13573458  0.67124527  0.95452112  1
  H  H29  1  0.83058492  0.82772924  0.04599756  1
  H  H30  1  0.83486336  0.67268496  0.01265651  1
  H  H31  1  0.92864727  0.72966800  0.18333294  1
  Be  Be32  1  0.46532562  0.99755618  0.93265539  1
  Be  Be33  1  0.90747677  0.49462414  0.45954772  1
  In  In34  1  0.98887255  0.99566156  0.49688890  1
  In  In35  1  0.48279075  0.50313921  0.95283163  1
  Cl  Cl36  1  0.52451515  0.26928990  0.95070573  1
  Cl  Cl37  1  0.32584211  0.00999942  0.15272258  1
  Cl  Cl38  1  0.73007751  0.00694984  0.31863001  1
  Cl  Cl39  1  0.99774577  0.33296458  0.53704654  1
  Cl  Cl40  1  0.33275802  0.00240468  0.73016384  1
  Cl  Cl41  1  0.70550228  0.98379262  0.87270423  1
  Cl  Cl42  1  0.49682953  0.72424652  0.05631324  1
  Cl  Cl43  1  0.71437613  0.48328361  0.32435583  1
  Cl  Cl44  1  0.24090333  0.47240434  0.17201133  1
  Cl  Cl45  1  0.00493154  0.66221891  0.45887474  1
  Cl  Cl46  1  0.31679898  0.51751999  0.69904921  1
  Cl  Cl47  1  0.77754597  0.52374607  0.82741086  1
