# generated using pymatgen
data_BeCdH12C2(NCl3)2
_symmetry_space_group_name_H-M   'P 1'
_cell_length_a   6.27604104
_cell_length_b   11.40070387
_cell_length_c   8.65599185
_cell_angle_alpha   92.70011897
_cell_angle_beta   90.09641812
_cell_angle_gamma   89.73309483
_symmetry_Int_Tables_number   1
_chemical_formula_structural   BeCdH12C2(NCl3)2
_chemical_formula_sum   'Be2 Cd2 H24 C4 N4 Cl12'
_cell_volume   618.65235261
_cell_formula_units_Z   2
loop_
 _symmetry_equiv_pos_site_id
 _symmetry_equiv_pos_as_xyz
  1  'x, y, z'
loop_
 _atom_site_type_symbol
 _atom_site_label
 _atom_site_symmetry_multiplicity
 _atom_site_fract_x
 _atom_site_fract_y
 _atom_site_fract_z
 _atom_site_occupancy
  C  C0  1  0.31371706  0.26271636  0.35549800  1
  C  C1  1  0.81121184  0.26551760  0.14369825  1
  C  C2  1  0.70422031  0.76834530  0.64037092  1
  C  C3  1  0.20060944  0.76295789  0.85867245  1
  N  N4  1  0.43728894  0.25177950  0.49963688  1
  N  N5  1  0.93627544  0.25466648  0.99902273  1
  N  N6  1  0.55195479  0.75596584  0.50994175  1
  N  N7  1  0.05422242  0.74976571  0.99040836  1
  H  H8  1  0.41921257  0.25089423  0.25575810  1
  H  H9  1  0.19177465  0.19465194  0.35075137  1
  H  H10  1  0.24073313  0.35004216  0.35641554  1
  H  H11  1  0.51784709  0.17263265  0.50229807  1
  H  H12  1  0.54801178  0.31964490  0.51084334  1
  H  H13  1  0.33916653  0.25480860  0.59631211  1
  H  H14  1  0.91842445  0.26305652  0.24303308  1
  H  H15  1  0.69936476  0.19256811  0.14376504  1
  H  H16  1  0.72787583  0.35013411  0.14789570  1
  H  H17  1  0.02695857  0.17881316  0.99024862  1
  H  H18  1  0.03842968  0.32612853  0.99494214  1
  H  H19  1  0.83789916  0.25315855  0.90214953  1
  H  H20  1  0.61749918  0.76431674  0.74949806  1
  H  H21  1  0.82091062  0.69722010  0.62836426  1
  H  H22  1  0.78154427  0.85400587  0.63667122  1
  H  H23  1  0.44311222  0.82558359  0.51757914  1
  H  H24  1  0.46815784  0.67819529  0.50910056  1
  H  H25  1  0.62659604  0.75710605  0.40247817  1
  H  H26  1  0.11143936  0.75336007  0.75025340  1
  H  H27  1  0.27278075  0.85007338  0.86871936  1
  H  H28  1  0.32366375  0.69506355  0.86251610  1
  H  H29  1  0.94511548  0.81950250  0.99633620  1
  H  H30  1  0.96990772  0.67207458  0.98080633  1
  H  H31  1  0.13342299  0.74771009  0.09622521  1
  Be  Be32  1  0.59223980  0.93398493  0.13090804  1
  Be  Be33  1  0.90422582  0.43531397  0.62545459  1
  Cd  Cd34  1  0.09753495  0.93907202  0.36314515  1
  Cd  Cd35  1  0.39777208  0.44012841  0.86542304  1
  Cl  Cl36  1  0.43556590  0.22711446  0.86479599  1
  Cl  Cl37  1  0.28826011  0.00800355  0.12319126  1
  Cl  Cl38  1  0.71663210  0.01027511  0.33993643  1
  Cl  Cl39  1  0.93165261  0.26240908  0.63312089  1
  Cl  Cl40  1  0.28344843  0.99193012  0.60306274  1
  Cl  Cl41  1  0.76642262  0.97967030  0.95360452  1
  Cl  Cl42  1  0.57315961  0.76124756  0.14139904  1
  Cl  Cl43  1  0.72627767  0.48127067  0.45043277  1
  Cl  Cl44  1  0.20179958  0.49106224  0.10001770  1
  Cl  Cl45  1  0.07281225  0.72601989  0.35751309  1
  Cl  Cl46  1  0.20692895  0.50934569  0.62311593  1
  Cl  Cl47  1  0.77594255  0.51077033  0.83496544  1
