# generated using pymatgen
data_BeH12PdC2(NCl3)2
_symmetry_space_group_name_H-M   'P 1'
_cell_length_a   6.63150708
_cell_length_b   10.51543361
_cell_length_c   8.47118212
_cell_angle_alpha   96.52993642
_cell_angle_beta   89.99526706
_cell_angle_gamma   90.00235893
_symmetry_Int_Tables_number   1
_chemical_formula_structural   BeH12PdC2(NCl3)2
_chemical_formula_sum   'Be2 H24 Pd2 C4 N4 Cl12'
_cell_volume   586.89013317
_cell_formula_units_Z   2
loop_
 _symmetry_equiv_pos_site_id
 _symmetry_equiv_pos_as_xyz
  1  'x, y, z'
loop_
 _atom_site_type_symbol
 _atom_site_label
 _atom_site_symmetry_multiplicity
 _atom_site_fract_x
 _atom_site_fract_y
 _atom_site_fract_z
 _atom_site_occupancy
  C  C0  1  0.35408531  0.24894432  0.35520385  1
  C  C1  1  0.88195388  0.26406123  0.13300017  1
  C  C2  1  0.61813946  0.76419540  0.63295658  1
  C  C3  1  0.14593171  0.74900078  0.85515944  1
  N  N4  1  0.43889710  0.25672199  0.51706512  1
  N  N5  1  0.99069079  0.24221660  0.97957919  1
  N  N6  1  0.50896578  0.74217643  0.47975514  1
  N  N7  1  0.06129882  0.75667702  0.01708251  1
  H  H8  1  0.47667677  0.23586537  0.26892311  1
  H  H9  1  0.25289071  0.16652953  0.33802885  1
  H  H10  1  0.27562387  0.33849856  0.34256687  1
  H  H11  1  0.50636677  0.17191343  0.53770880  1
  H  H12  1  0.54487034  0.33004093  0.53079956  1
  H  H13  1  0.33012608  0.27736939  0.60325788  1
  H  H14  1  0.98819142  0.25719766  0.22997325  1
  H  H15  1  0.76489791  0.19122965  0.13427139  1
  H  H16  1  0.81508902  0.35951203  0.14400328  1
  H  H17  1  0.05754641  0.15288424  0.96346804  1
  H  H18  1  0.10379782  0.30993814  0.97359940  1
  H  H19  1  0.89352150  0.24750170  0.88481394  1
  H  H20  1  0.51220425  0.75741385  0.73016284  1
  H  H21  1  0.73526970  0.69140441  0.63411355  1
  H  H22  1  0.68496050  0.85965739  0.64368418  1
  H  H23  1  0.39580854  0.80987669  0.47386035  1
  H  H24  1  0.44206049  0.65284497  0.46393930  1
  H  H25  1  0.60582251  0.74734174  0.38475712  1
  H  H26  1  0.02326484  0.73581833  0.76897080  1
  H  H27  1  0.22417007  0.83862988  0.84248105  1
  H  H28  1  0.24729862  0.66668103  0.83789231  1
  H  H29  1  0.95511132  0.82985811  0.03089272  1
  H  H30  1  0.99417606  0.67177389  0.03780841  1
  H  H31  1  0.17012548  0.77749442  0.10318135  1
  Be  Be32  1  0.58149730  0.93326008  0.09695269  1
  Be  Be33  1  0.91854290  0.43329102  0.59692547  1
  Pd  Pd34  1  0.98203419  0.00805603  0.47860808  1
  Pd  Pd35  1  0.51795031  0.50802964  0.97863847  1
  Cl  Cl36  1  0.46645186  0.29640430  0.89459631  1
  Cl  Cl37  1  0.31014713  0.00194694  0.08804670  1
  Cl  Cl38  1  0.67616249  0.00323992  0.33236548  1
  Cl  Cl39  1  0.91741985  0.22689376  0.60277521  1
  Cl  Cl40  1  0.26364259  0.00584574  0.63630923  1
  Cl  Cl41  1  0.77107198  0.97372672  0.93398256  1
  Cl  Cl42  1  0.58258760  0.72684534  0.10287047  1
  Cl  Cl43  1  0.72905330  0.47383819  0.43396086  1
  Cl  Cl44  1  0.23629328  0.50575380  0.13631054  1
  Cl  Cl45  1  0.03358960  0.79644205  0.39456433  1
  Cl  Cl46  1  0.18995453  0.50193304  0.58810214  1
  Cl  Cl47  1  0.82379097  0.50330255  0.83232773  1
