# generated using pymatgen
data_BeH12RuC2(NCl3)2
_symmetry_space_group_name_H-M   'P 1'
_cell_length_a   6.30455414
_cell_length_b   10.58237405
_cell_length_c   8.68340420
_cell_angle_alpha   100.79991599
_cell_angle_beta   89.95476439
_cell_angle_gamma   90.10310472
_symmetry_Int_Tables_number   1
_chemical_formula_structural   BeH12RuC2(NCl3)2
_chemical_formula_sum   'Be2 H24 Ru2 C4 N4 Cl12'
_cell_volume   569.06959641
_cell_formula_units_Z   2
loop_
 _symmetry_equiv_pos_site_id
 _symmetry_equiv_pos_as_xyz
  1  'x, y, z'
loop_
 _atom_site_type_symbol
 _atom_site_label
 _atom_site_symmetry_multiplicity
 _atom_site_fract_x
 _atom_site_fract_y
 _atom_site_fract_z
 _atom_site_occupancy
  C  C0  1  0.36841374  0.30488480  0.36343001  1
  C  C1  1  0.83867352  0.25157859  0.13192998  1
  C  C2  1  0.65336355  0.74964562  0.63231944  1
  C  C3  1  0.12860235  0.80308027  0.86469093  1
  N  N4  1  0.49756213  0.25829448  0.48374872  1
  N  N5  1  0.94496305  0.22479183  0.97751973  1
  N  N6  1  0.56002094  0.72628895  0.47344229  1
  N  N7  1  0.00464676  0.75795045  0.98887324  1
  H  H8  1  0.44677888  0.28097422  0.24949792  1
  H  H9  1  0.21398927  0.25778978  0.35743672  1
  H  H10  1  0.34748196  0.40877013  0.39586458  1
  H  H11  1  0.53469697  0.16119386  0.44999965  1
  H  H12  1  0.63975239  0.30863003  0.49924180  1
  H  H13  1  0.42397030  0.26901211  0.59277638  1
  H  H14  1  0.95499410  0.24762589  0.22377332  1
  H  H15  1  0.71469641  0.17968631  0.13275748  1
  H  H16  1  0.77323419  0.34870402  0.14798954  1
  H  H17  1  0.01769325  0.13633633  0.95608324  1
  H  H18  1  0.06103443  0.29502563  0.97433253  1
  H  H19  1  0.83517373  0.22749133  0.88913885  1
  H  H20  1  0.52777567  0.74990975  0.71865494  1
  H  H21  1  0.76847659  0.67400596  0.63894516  1
  H  H22  1  0.72787232  0.84458134  0.65150057  1
  H  H23  1  0.44926593  0.79850661  0.46726045  1
  H  H24  1  0.48305413  0.63921637  0.44657719  1
  H  H25  1  0.67869881  0.72878543  0.39085687  1
  H  H26  1  0.04111665  0.78293944  0.75428747  1
  H  H27  1  0.15889076  0.90609517  0.89810257  1
  H  H28  1  0.27874335  0.75135939  0.85116564  1
  H  H29  1  0.86438101  0.80943246  0.00854714  1
  H  H30  1  0.96405969  0.66121681  0.95601320  1
  H  H31  1  0.08382095  0.76773648  0.09557440  1
  Be  Be32  1  0.51942273  0.91618993  0.14230860  1
  Be  Be33  1  0.98250956  0.41565973  0.64363336  1
  Ru  Ru34  1  0.05131359  0.99173374  0.44214095  1
  Ru  Ru35  1  0.45054316  0.49133336  0.94170944  1
  Cl  Cl36  1  0.44785056  0.26830870  0.86801200  1
  Cl  Cl37  1  0.22387137  0.00633240  0.20619352  1
  Cl  Cl38  1  0.69829477  0.99178125  0.33232711  1
  Cl  Cl39  1  0.98293767  0.21690361  0.60796803  1
  Cl  Cl40  1  0.32982326  0.98548440  0.61449409  1
  Cl  Cl41  1  0.62825894  0.96882065  0.95322838  1
  Cl  Cl42  1  0.51558682  0.71754988  0.10689682  1
  Cl  Cl43  1  0.87434898  0.46897847  0.45467910  1
  Cl  Cl44  1  0.17233465  0.48481644  0.11486710  1
  Cl  Cl45  1  0.05341657  0.76846775  0.37002197  1
  Cl  Cl46  1  0.27901391  0.50463727  0.70548921  1
  Cl  Cl47  1  0.80459941  0.49154084  0.83399496  1
