# generated using pymatgen
data_SrBeH12C2(NCl3)2
_symmetry_space_group_name_H-M   'P 1'
_cell_length_a   7.78048915
_cell_length_b   11.37173979
_cell_length_c   7.21939699
_cell_angle_alpha   92.26135703
_cell_angle_beta   101.90818817
_cell_angle_gamma   88.11424183
_symmetry_Int_Tables_number   1
_chemical_formula_structural   SrBeH12C2(NCl3)2
_chemical_formula_sum   'Sr2 Be2 H24 C4 N4 Cl12'
_cell_volume   624.32218530
_cell_formula_units_Z   2
loop_
 _symmetry_equiv_pos_site_id
 _symmetry_equiv_pos_as_xyz
  1  'x, y, z'
loop_
 _atom_site_type_symbol
 _atom_site_label
 _atom_site_symmetry_multiplicity
 _atom_site_fract_x
 _atom_site_fract_y
 _atom_site_fract_z
 _atom_site_occupancy
  C  C0  1  0.45772929  0.27771686  0.46800311  1
  C  C1  1  0.92667116  0.22450643  0.03736245  1
  C  C2  1  0.58267922  0.72268754  0.53275316  1
  C  C3  1  0.05786646  0.76709369  0.92826094  1
  N  N4  1  0.61292131  0.22990009  0.60095469  1
  N  N5  1  0.08005399  0.27075941  0.97488059  1
  N  N6  1  0.39566787  0.75670824  0.51962479  1
  N  N7  1  0.87725107  0.75483059  0.95806213  1
  H  H8  1  0.47308681  0.25868724  0.32235667  1
  H  H9  1  0.33967252  0.23723675  0.49443943  1
  H  H10  1  0.44783724  0.37281547  0.49584063  1
  H  H11  1  0.62906297  0.13887380  0.58826388  1
  H  H12  1  0.72965324  0.26540879  0.58297933  1
  H  H13  1  0.59610886  0.24706989  0.73992029  1
  H  H14  1  0.95155319  0.22697812  0.19229219  1
  H  H15  1  0.90143185  0.13505061  0.97857491  1
  H  H16  1  0.81342024  0.28250529  0.98674515  1
  H  H17  1  0.19637289  0.22418210  0.02226538  1
  H  H18  1  0.10127799  0.35723643  0.02253582  1
  H  H19  1  0.06203424  0.26779684  0.82602498  1
  H  H20  1  0.63979444  0.71132936  0.68176754  1
  H  H21  1  0.59393779  0.63846772  0.45762791  1
  H  H22  1  0.64784881  0.79205373  0.47540723  1
  H  H23  1  0.38340169  0.83162916  0.60555617  1
  H  H24  1  0.32735527  0.68937147  0.56411152  1
  H  H25  1  0.33569077  0.77559464  0.38238209  1
  H  H26  1  0.05801666  0.75072303  0.77810362  1
  H  H27  1  0.10131897  0.85609709  0.97227301  1
  H  H28  1  0.14284954  0.70177930  0.01146781  1
  H  H29  1  0.79816942  0.82238252  0.88929933  1
  H  H30  1  0.83039295  0.67094450  0.90824446  1
  H  H31  1  0.87485850  0.76131569  0.10126915  1
  Be  Be32  1  0.45018418  0.93996263  0.06408178  1
  Be  Be33  1  0.04485598  0.55684108  0.41004267  1
  Sr  Sr34  1  0.00802703  0.99508452  0.47482813  1
  Sr  Sr35  1  0.50624434  0.50473277  0.02325377  1
  Cl  Cl36  1  0.47301643  0.26677334  0.97513298  1
  Cl  Cl37  1  0.28057702  0.99379440  0.23725036  1
  Cl  Cl38  1  0.68796969  0.00526237  0.17457487  1
  Cl  Cl39  1  0.01558150  0.23373573  0.54165041  1
  Cl  Cl40  1  0.33603669  0.98215680  0.79020191  1
  Cl  Cl41  1  0.77573828  0.97583176  0.71030877  1
  Cl  Cl42  1  0.48692012  0.75932508  0.05906507  1
  Cl  Cl43  1  0.81270294  0.48057351  0.33784865  1
  Cl  Cl44  1  0.20145483  0.51637967  0.21733230  1
  Cl  Cl45  1  0.98831227  0.73926584  0.40196962  1
  Cl  Cl46  1  0.20312487  0.53146098  0.66839155  1
  Cl  Cl47  1  0.76329035  0.49916540  0.81471340  1
