# generated using pymatgen
data_BeGeH12C2(NCl3)2
_symmetry_space_group_name_H-M   'P 1'
_cell_length_a   6.98478122
_cell_length_b   11.01258730
_cell_length_c   8.14610180
_cell_angle_alpha   92.08838039
_cell_angle_beta   90.01545178
_cell_angle_gamma   89.95547372
_symmetry_Int_Tables_number   1
_chemical_formula_structural   BeGeH12C2(NCl3)2
_chemical_formula_sum   'Be2 Ge2 H24 C4 N4 Cl12'
_cell_volume   626.18593528
_cell_formula_units_Z   2
loop_
 _symmetry_equiv_pos_site_id
 _symmetry_equiv_pos_as_xyz
  1  'x, y, z'
loop_
 _atom_site_type_symbol
 _atom_site_label
 _atom_site_symmetry_multiplicity
 _atom_site_fract_x
 _atom_site_fract_y
 _atom_site_fract_z
 _atom_site_occupancy
  C  C0  1  0.34757732  0.26592750  0.35769694  1
  C  C1  1  0.82361301  0.26173870  0.13684797  1
  C  C2  1  0.67665547  0.76241428  0.63707497  1
  C  C3  1  0.15216991  0.76578024  0.85832653  1
  N  N4  1  0.49204617  0.25259368  0.48861622  1
  N  N5  1  0.97044299  0.24093941  0.00739967  1
  N  N6  1  0.52948406  0.74046031  0.50818364  1
  N  N7  1  0.00839707  0.75260634  0.98975700  1
  H  H8  1  0.41378449  0.24633994  0.23804762  1
  H  H9  1  0.23035575  0.20220160  0.37757899  1
  H  H10  1  0.29110463  0.35836195  0.36443145  1
  H  H11  1  0.56251097  0.16972286  0.47586737  1
  H  H12  1  0.59383705  0.32205508  0.48336985  1
  H  H13  1  0.43222477  0.25743569  0.60564720  1
  H  H14  1  0.89112427  0.25560154  0.25760284  1
  H  H15  1  0.71243149  0.19267630  0.12038832  1
  H  H16  1  0.76506359  0.35297964  0.12442887  1
  H  H17  1  0.03569479  0.15720866  0.01483180  1
  H  H18  1  0.07484243  0.30800183  0.01747498  1
  H  H19  1  0.91498687  0.24435407  0.88830988  1
  H  H20  1  0.60988607  0.75635734  0.75809821  1
  H  H21  1  0.78876771  0.69385477  0.62064691  1
  H  H22  1  0.73381199  0.85386588  0.62389583  1
  H  H23  1  0.42369295  0.80669275  0.51842735  1
  H  H24  1  0.46620634  0.65621553  0.51593233  1
  H  H25  1  0.58421250  0.74418161  0.38888918  1
  H  H26  1  0.08603767  0.74445577  0.73910244  1
  H  H27  1  0.20655613  0.85868045  0.86327737  1
  H  H28  1  0.27094445  0.70328567  0.87926823  1
  H  H29  1  0.90597762  0.82178491  0.98426762  1
  H  H30  1  0.93863111  0.66954898  0.97788601  1
  H  H31  1  0.06868565  0.75810010  0.10661726  1
  Be  Be32  1  0.57830704  0.92900451  0.12637271  1
  Be  Be33  1  0.92128551  0.42916104  0.62602493  1
  Ge  Ge34  1  0.09573813  0.98711382  0.39110455  1
  Ge  Ge35  1  0.40405362  0.48696290  0.89060863  1
  Cl  Cl36  1  0.41710200  0.27588082  0.87918817  1
  Cl  Cl37  1  0.29973078  0.99974852  0.11518898  1
  Cl  Cl38  1  0.68070434  0.99503286  0.34546202  1
  Cl  Cl39  1  0.93263184  0.24641010  0.62132860  1
  Cl  Cl40  1  0.30427217  0.99410838  0.61802267  1
  Cl  Cl41  1  0.73946940  0.98438604  0.93981751  1
  Cl  Cl42  1  0.56739617  0.74623699  0.12201130  1
  Cl  Cl43  1  0.76023530  0.48468089  0.43931264  1
  Cl  Cl44  1  0.19542763  0.49383971  0.11754465  1
  Cl  Cl45  1  0.08324545  0.77601242  0.37997646  1
  Cl  Cl46  1  0.19980032  0.49988178  0.61508455  1
  Cl  Cl47  1  0.81886675  0.49519413  0.84505739  1
