# generated using pymatgen
data_BeGaH12C2(NCl3)2
_symmetry_space_group_name_H-M   'P 1'
_cell_length_a   7.92774644
_cell_length_b   10.51463905
_cell_length_c   7.56572562
_cell_angle_alpha   89.42456462
_cell_angle_beta   84.53373512
_cell_angle_gamma   88.81874765
_symmetry_Int_Tables_number   1
_chemical_formula_structural   BeGaH12C2(NCl3)2
_chemical_formula_sum   'Be2 Ga2 H24 C4 N4 Cl12'
_cell_volume   627.63711139
_cell_formula_units_Z   2
loop_
 _symmetry_equiv_pos_site_id
 _symmetry_equiv_pos_as_xyz
  1  'x, y, z'
loop_
 _atom_site_type_symbol
 _atom_site_label
 _atom_site_symmetry_multiplicity
 _atom_site_fract_x
 _atom_site_fract_y
 _atom_site_fract_z
 _atom_site_occupancy
  C  C0  1  0.42319046  0.25215610  0.43066901  1
  C  C1  1  0.94498004  0.24450324  0.06539941  1
  C  C2  1  0.56972832  0.75367067  0.56829717  1
  C  C3  1  0.05339081  0.75831699  0.94170061  1
  N  N4  1  0.57421963  0.24158452  0.53194382  1
  N  N5  1  0.10256948  0.25822175  0.94421883  1
  N  N6  1  0.42043632  0.75784202  0.46358340  1
  N  N7  1  0.89824594  0.74175166  0.06567627  1
  H  H8  1  0.46484986  0.24760811  0.28892827  1
  H  H9  1  0.33974818  0.17317316  0.46836885  1
  H  H10  1  0.35824960  0.34277290  0.46152257  1
  H  H11  1  0.63830142  0.15610010  0.50367122  1
  H  H12  1  0.65595438  0.31464669  0.49253675  1
  H  H13  1  0.54521823  0.24883909  0.66917985  1
  H  H14  1  0.98030284  0.23290757  0.20104947  1
  H  H15  1  0.87471862  0.16240440  0.02722245  1
  H  H16  1  0.86759174  0.33112048  0.05603303  1
  H  H17  1  0.17579529  0.17563944  0.93700899  1
  H  H18  1  0.17535964  0.32960031  0.99340981  1
  H  H19  1  0.07621183  0.28429652  0.81674343  1
  H  H20  1  0.52590682  0.75899991  0.70928563  1
  H  H21  1  0.63855218  0.66423751  0.54105334  1
  H  H22  1  0.64929441  0.83446646  0.52914921  1
  H  H23  1  0.35821315  0.84465107  0.47934486  1
  H  H24  1  0.33712067  0.68683202  0.50746154  1
  H  H25  1  0.45246353  0.74388359  0.32771211  1
  H  H26  1  0.01500792  0.77007278  0.80712754  1
  H  H27  1  0.12178847  0.84144488  0.98016051  1
  H  H28  1  0.13335317  0.67271887  0.94782647  1
  H  H29  1  0.82091783  0.82248232  0.06780263  1
  H  H30  1  0.82798428  0.66724256  0.02247116  1
  H  H31  1  0.92749505  0.72086832  0.19399353  1
  Be  Be32  1  0.46597597  0.99467668  0.93065368  1
  Be  Be33  1  0.90741727  0.49467854  0.46855026  1
  Ga  Ga34  1  0.98579841  0.99296186  0.50442593  1
  Ga  Ga35  1  0.47722457  0.50164010  0.94565191  1
  Cl  Cl36  1  0.52674231  0.28093710  0.94938148  1
  Cl  Cl37  1  0.33486932  0.00602422  0.15982312  1
  Cl  Cl38  1  0.75954371  0.00470523  0.32288747  1
  Cl  Cl39  1  0.99821244  0.32932244  0.53832254  1
  Cl  Cl40  1  0.32738183  0.00523488  0.73158662  1
  Cl  Cl41  1  0.71003657  0.98228063  0.86886992  1
  Cl  Cl42  1  0.48825293  0.71191847  0.04529371  1
  Cl  Cl43  1  0.71778845  0.48710508  0.32520782  1
  Cl  Cl44  1  0.25307261  0.47423706  0.16224866  1
  Cl  Cl45  1  0.01237734  0.66188305  0.46956253  1
  Cl  Cl46  1  0.32737712  0.51508970  0.70843960  1
  Cl  Cl47  1  0.76079278  0.52232722  0.82883960  1
