# generated using pymatgen
data_BeZnH12C2(NCl3)2
_symmetry_space_group_name_H-M   'P 1'
_cell_length_a   6.13768260
_cell_length_b   11.22421085
_cell_length_c   8.53248282
_cell_angle_alpha   91.16369612
_cell_angle_beta   89.99484264
_cell_angle_gamma   89.97256039
_symmetry_Int_Tables_number   1
_chemical_formula_structural   BeZnH12C2(NCl3)2
_chemical_formula_sum   'Be2 Zn2 H24 C4 N4 Cl12'
_cell_volume   587.68692841
_cell_formula_units_Z   2
loop_
 _symmetry_equiv_pos_site_id
 _symmetry_equiv_pos_as_xyz
  1  'x, y, z'
loop_
 _atom_site_type_symbol
 _atom_site_label
 _atom_site_symmetry_multiplicity
 _atom_site_fract_x
 _atom_site_fract_y
 _atom_site_fract_z
 _atom_site_occupancy
  C  C0  1  0.25058286  0.26312610  0.35512384  1
  C  C1  1  0.74927041  0.26962172  0.14381877  1
  C  C2  1  0.75079710  0.76967515  0.64412786  1
  C  C3  1  0.24954803  0.76306181  0.85543338  1
  N  N4  1  0.41941923  0.25223563  0.47779662  1
  N  N5  1  0.91854017  0.25990360  0.02075229  1
  N  N6  1  0.58130426  0.75996647  0.52125592  1
  N  N7  1  0.08092852  0.75228376  0.97828265  1
  H  H8  1  0.32771234  0.25777814  0.23966665  1
  H  H9  1  0.13327898  0.19078470  0.36841714  1
  H  H10  1  0.16988298  0.34946987  0.37023403  1
  H  H11  1  0.51007799  0.17521222  0.46450109  1
  H  H12  1  0.52579697  0.32506724  0.47638595  1
  H  H13  1  0.35319938  0.24788531  0.59038889  1
  H  H14  1  0.82681463  0.26631887  0.25905017  1
  H  H15  1  0.63528120  0.19568794  0.12739332  1
  H  H16  1  0.66531215  0.35509020  0.13272620  1
  H  H17  1  0.00677040  0.18184809  0.02664008  1
  H  H18  1  0.02639432  0.33192457  0.03041546  1
  H  H19  1  0.85338251  0.25962423  0.90758835  1
  H  H20  1  0.67351633  0.76633120  0.75945109  1
  H  H21  1  0.86492229  0.69576321  0.62753561  1
  H  H22  1  0.83457840  0.85516029  0.63296458  1
  H  H23  1  0.47334525  0.83197114  0.53102502  1
  H  H24  1  0.49322290  0.68188680  0.52723256  1
  H  H25  1  0.64624680  0.75967681  0.40802499  1
  H  H26  1  0.17224658  0.75765228  0.74004889  1
  H  H27  1  0.33020500  0.84939958  0.87037612  1
  H  H28  1  0.36694360  0.69070181  0.86868732  1
  H  H29  1  0.97440054  0.82508143  0.97683481  1
  H  H30  1  0.99042875  0.67521089  0.96521190  1
  H  H31  1  0.14732327  0.74804383  0.09081031  1
  Be  Be32  1  0.62427321  0.92979061  0.13613192  1
  Be  Be33  1  0.87549778  0.42983882  0.63582601  1
  Zn  Zn34  1  0.12434523  0.92542330  0.35993357  1
  Zn  Zn35  1  0.37534407  0.42535285  0.85959297  1
  Cl  Cl36  1  0.38843506  0.22774798  0.85130711  1
  Cl  Cl37  1  0.30892302  0.00188521  0.14266257  1
  Cl  Cl38  1  0.77213952  0.00442612  0.33964588  1
  Cl  Cl39  1  0.88765083  0.25500226  0.64672508  1
  Cl  Cl40  1  0.27790745  0.98935402  0.58327552  1
  Cl  Cl41  1  0.77721388  0.98469459  0.94685639  1
  Cl  Cl42  1  0.61243330  0.75496274  0.14711481  1
  Cl  Cl43  1  0.72260296  0.48477894  0.44654571  1
  Cl  Cl44  1  0.22168710  0.48922480  0.08300251  1
  Cl  Cl45  1  0.11170954  0.72781708  0.35167816  1
  Cl  Cl46  1  0.19076626  0.50192399  0.64244004  1
  Cl  Cl47  1  0.72742040  0.50441008  0.83935642  1
