# generated using pymatgen
data_CaBH12C2(I3N)2
_symmetry_space_group_name_H-M   'P 1'
_cell_length_a   7.75623104
_cell_length_b   11.21644003
_cell_length_c   10.57415040
_cell_angle_alpha   96.20745565
_cell_angle_beta   78.42908565
_cell_angle_gamma   94.09953395
_symmetry_Int_Tables_number   1
_chemical_formula_structural   CaBH12C2(I3N)2
_chemical_formula_sum   'Ca2 B2 H24 C4 I12 N4'
_cell_volume   894.77109481
_cell_formula_units_Z   2
loop_
 _symmetry_equiv_pos_site_id
 _symmetry_equiv_pos_as_xyz
  1  'x, y, z'
loop_
 _atom_site_type_symbol
 _atom_site_label
 _atom_site_symmetry_multiplicity
 _atom_site_fract_x
 _atom_site_fract_y
 _atom_site_fract_z
 _atom_site_occupancy
  C  C0  1  0.39376791  0.19566350  0.51030744  1
  C  C1  1  0.00273800  0.23418659  0.03977450  1
  C  C2  1  0.42262524  0.81556185  0.45019598  1
  C  C3  1  0.28138252  0.69737320  0.73525571  1
  N  N4  1  0.55109632  0.23940552  0.56455520  1
  N  N5  1  0.05049171  0.26144599  0.90218737  1
  N  N6  1  0.36339478  0.86867039  0.34529432  1
  N  N7  1  0.85677084  0.75783876  0.27055332  1
  H  H8  1  0.38388211  0.24879245  0.43127933  1
  H  H9  1  0.40981616  0.10145862  0.47286202  1
  H  H10  1  0.27537349  0.20238085  0.58616186  1
  H  H11  1  0.66549862  0.20946155  0.50017429  1
  H  H12  1  0.56096138  0.33197581  0.57985354  1
  H  H13  1  0.54824182  0.20666154  0.65315763  1
  H  H14  1  0.05678853  0.30718746  0.10032766  1
  H  H15  1  0.05870967  0.14963850  0.04943346  1
  H  H16  1  0.85909335  0.22667588  0.06895192  1
  H  H17  1  0.18544457  0.28499945  0.87735611  1
  H  H18  1  0.98692540  0.33730914  0.89036388  1
  H  H19  1  0.02012993  0.18909763  0.83766033  1
  H  H20  1  0.33425228  0.73827661  0.47894446  1
  H  H21  1  0.55720889  0.78425452  0.42278644  1
  H  H22  1  0.41783450  0.88201770  0.53471429  1
  H  H23  1  0.25598793  0.78016505  0.69759469  1
  H  H24  1  0.38686473  0.81036471  0.26243178  1
  H  H25  1  0.44404114  0.94309489  0.32048775  1
  H  H26  1  0.16205416  0.67678631  0.80723047  1
  H  H27  1  0.29763195  0.62202223  0.65956462  1
  H  H28  1  0.40361716  0.71367284  0.77400880  1
  H  H29  1  0.78304544  0.81625335  0.23772463  1
  H  H30  1  0.76872206  0.70202294  0.32571832  1
  H  H31  1  0.90697761  0.70154374  0.18975284  1
  B  B32  1  0.43170059  0.97625729  0.98891654  1
  B  B33  1  0.93481332  0.50826812  0.45042460  1
  Ca  Ca34  1  0.03743706  0.89163902  0.40180123  1
  Ca  Ca35  1  0.27377302  0.62647699  0.99356361  1
  I  I36  1  0.46081614  0.13897068  0.12318836  1
  I  I37  1  0.14984421  0.89528860  0.04204159  1
  I  I38  1  0.81791407  0.07429548  0.32839290  1
  I  I39  1  0.98903868  0.36543125  0.56551638  1
  I  I40  1  0.48338628  0.01863094  0.78410112  1
  I  I41  1  0.00596666  0.00835832  0.67860207  1
  I  I42  1  0.60967898  0.82308978  0.00097448  1
  I  I43  1  0.70557697  0.45810016  0.35210842  1
  I  I44  1  0.19678411  0.53392812  0.29222561  1
  I  I45  1  0.88716561  0.67877593  0.58394899  1
  I  I46  1  0.46398005  0.41502272  0.85948731  1
  I  I47  1  0.90077776  0.55128530  0.97833841  1
