# generated using pymatgen
data_BeNiH12C2(NCl3)2
_symmetry_space_group_name_H-M   'P 1'
_cell_length_a   6.57599149
_cell_length_b   9.94956240
_cell_length_c   8.95414328
_cell_angle_alpha   97.90842553
_cell_angle_beta   89.96659838
_cell_angle_gamma   90.02498765
_symmetry_Int_Tables_number   1
_chemical_formula_structural   BeNiH12C2(NCl3)2
_chemical_formula_sum   'Be2 Ni2 H24 C4 N4 Cl12'
_cell_volume   580.28176361
_cell_formula_units_Z   2
loop_
 _symmetry_equiv_pos_site_id
 _symmetry_equiv_pos_as_xyz
  1  'x, y, z'
loop_
 _atom_site_type_symbol
 _atom_site_label
 _atom_site_symmetry_multiplicity
 _atom_site_fract_x
 _atom_site_fract_y
 _atom_site_fract_z
 _atom_site_occupancy
  C  C0  1  0.32315649  0.26243437  0.36711643  1
  C  C1  1  0.86393411  0.27879986  0.12128551  1
  C  C2  1  0.63581357  0.77902753  0.62155284  1
  C  C3  1  0.17691139  0.76220427  0.86752892  1
  N  N4  1  0.42707862  0.24798605  0.51003257  1
  N  N5  1  0.97298002  0.24233967  0.97648334  1
  N  N6  1  0.52655831  0.74230395  0.47694661  1
  N  N7  1  0.07318900  0.74799798  0.01068744  1
  H  H8  1  0.43179860  0.24239192  0.27460245  1
  H  H9  1  0.19960084  0.18821933  0.35092928  1
  H  H10  1  0.26488406  0.36566195  0.37348253  1
  H  H11  1  0.47032593  0.14907699  0.51494331  1
  H  H12  1  0.55501488  0.30994876  0.51895242  1
  H  H13  1  0.33684469  0.27936654  0.60295383  1
  H  H14  1  0.96530541  0.26433986  0.21412035  1
  H  H15  1  0.73008635  0.21383330  0.12165468  1
  H  H16  1  0.81806894  0.38525502  0.13095370  1
  H  H17  1  0.01811100  0.14206177  0.96265703  1
  H  H18  1  0.10137502  0.30294071  0.97132073  1
  H  H19  1  0.87921878  0.25352532  0.88617550  1
  H  H20  1  0.53475294  0.76433076  0.71457376  1
  H  H21  1  0.76994782  0.71435196  0.62165806  1
  H  H22  1  0.68125506  0.88557121  0.63112885  1
  H  H23  1  0.39796809  0.80270701  0.47194813  1
  H  H24  1  0.48166811  0.64198383  0.46329160  1
  H  H25  1  0.62008054  0.75360951  0.38646573  1
  H  H26  1  0.06802976  0.74220580  0.77524789  1
  H  H27  1  0.23553752  0.86535505  0.87365782  1
  H  H28  1  0.30017492  0.68782948  0.85116687  1
  H  H29  1  0.94537506  0.80999973  0.01971615  1
  H  H30  1  0.02985667  0.64913472  0.01586571  1
  H  H31  1  0.16363069  0.77949953  0.10340620  1
  Be  Be32  1  0.59143550  0.91811720  0.11135739  1
  Be  Be33  1  0.90886073  0.41834428  0.61127485  1
  Ni  Ni34  1  0.98484827  0.99842082  0.47554023  1
  Ni  Ni35  1  0.51522212  0.49834728  0.97536688  1
  Cl  Cl36  1  0.45873046  0.29160623  0.87826477  1
  Cl  Cl37  1  0.32165334  0.99781470  0.12701595  1
  Cl  Cl38  1  0.71553062  0.01017631  0.32763894  1
  Cl  Cl39  1  0.89765193  0.20427248  0.61519376  1
  Cl  Cl40  1  0.24283053  0.99115000  0.62301883  1
  Cl  Cl41  1  0.75483405  0.96018166  0.94096478  1
  Cl  Cl42  1  0.60219681  0.70409663  0.11543823  1
  Cl  Cl43  1  0.74576781  0.46050533  0.44092293  1
  Cl  Cl44  1  0.25683481  0.49084805  0.12264357  1
  Cl  Cl45  1  0.04144702  0.79163310  0.37870411  1
  Cl  Cl46  1  0.17886812  0.49786899  0.62686932  1
  Cl  Cl47  1  0.78477846  0.51040145  0.82757579  1
