# generated using pymatgen
data_CaBeH12C2(NCl3)2
_symmetry_space_group_name_H-M   'P 1'
_cell_length_a   7.69063700
_cell_length_b   11.14559214
_cell_length_c   7.45241418
_cell_angle_alpha   94.15798444
_cell_angle_beta   89.92641438
_cell_angle_gamma   90.16775983
_symmetry_Int_Tables_number   1
_chemical_formula_structural   CaBeH12C2(NCl3)2
_chemical_formula_sum   'Ca2 Be2 H24 C4 N4 Cl12'
_cell_volume   637.11190979
_cell_formula_units_Z   2
loop_
 _symmetry_equiv_pos_site_id
 _symmetry_equiv_pos_as_xyz
  1  'x, y, z'
loop_
 _atom_site_type_symbol
 _atom_site_label
 _atom_site_symmetry_multiplicity
 _atom_site_fract_x
 _atom_site_fract_y
 _atom_site_fract_z
 _atom_site_occupancy
  C  C0  1  0.43559976  0.26871741  0.46572852  1
  C  C1  1  0.93374678  0.23226305  0.03424553  1
  C  C2  1  0.57939678  0.73068518  0.59497670  1
  C  C3  1  0.07576313  0.76929193  0.90500049  1
  N  N4  1  0.59592064  0.25527600  0.57250420  1
  N  N5  1  0.09466284  0.24269675  0.92675962  1
  N  N6  1  0.40114539  0.74829370  0.52754113  1
  N  N7  1  0.89749403  0.75355390  0.97441391  1
  H  H8  1  0.46652997  0.25638954  0.32201107  1
  H  H9  1  0.34301434  0.19958578  0.50089121  1
  H  H10  1  0.37894770  0.35752132  0.49982815  1
  H  H11  1  0.65305187  0.17286954  0.53906444  1
  H  H12  1  0.68912817  0.31935745  0.54882767  1
  H  H13  1  0.56887755  0.26177983  0.71138563  1
  H  H14  1  0.96508579  0.24453553  0.17782688  1
  H  H15  1  0.87337847  0.14434799  0.00113832  1
  H  H16  1  0.84426923  0.30282115  0.99882870  1
  H  H17  1  0.18480668  0.17683943  0.94978089  1
  H  H18  1  0.15590135  0.32392673  0.95991554  1
  H  H19  1  0.06751352  0.23675692  0.78800408  1
  H  H20  1  0.57376456  0.73043968  0.74135977  1
  H  H21  1  0.63099871  0.64483266  0.53820915  1
  H  H22  1  0.66093819  0.80480440  0.55554903  1
  H  H23  1  0.34850581  0.83033936  0.58301461  1
  H  H24  1  0.31897197  0.67751826  0.55836140  1
  H  H25  1  0.40212116  0.75170684  0.38855945  1
  H  H26  1  0.06936571  0.76802711  0.75848674  1
  H  H27  1  0.12951007  0.85522093  0.95951661  1
  H  H28  1  0.15576097  0.69498032  0.94530403  1
  H  H29  1  0.81656333  0.82449294  0.94316585  1
  H  H30  1  0.84336820  0.67143773  0.92012489  1
  H  H31  1  0.89916517  0.75073049  0.11344965  1
  Be  Be32  1  0.53849630  0.94128916  0.11765152  1
  Be  Be33  1  0.03981249  0.55809809  0.38125183  1
  Ca  Ca34  1  0.04329603  0.99703154  0.41158519  1
  Ca  Ca35  1  0.54275943  0.50233864  0.08953397  1
  Cl  Cl36  1  0.48859944  0.27881663  0.97987885  1
  Cl  Cl37  1  0.29687593  0.01650914  0.15862112  1
  Cl  Cl38  1  0.68755762  0.98969370  0.33940740  1
  Cl  Cl39  1  0.98952969  0.22084965  0.51906715  1
  Cl  Cl40  1  0.25477762  0.99203628  0.67898521  1
  Cl  Cl41  1  0.66227064  0.97646393  0.89561687  1
  Cl  Cl42  1  0.49848496  0.75289460  0.11159128  1
  Cl  Cl43  1  0.79674483  0.48348381  0.34230095  1
  Cl  Cl44  1  0.18666215  0.50895601  0.15856614  1
  Cl  Cl45  1  0.00178425  0.74685330  0.38736517  1
  Cl  Cl46  1  0.16420135  0.52389459  0.60279703  1
  Cl  Cl47  1  0.75490314  0.50882935  0.82230303  1
