# generated using pymatgen
data_BeSiH12C2(NCl3)2
_symmetry_space_group_name_H-M   'P 1'
_cell_length_a   7.36244795
_cell_length_b   10.78858038
_cell_length_c   7.93718854
_cell_angle_alpha   90.86325623
_cell_angle_beta   90.02687878
_cell_angle_gamma   89.81535377
_symmetry_Int_Tables_number   1
_chemical_formula_structural   BeSiH12C2(NCl3)2
_chemical_formula_sum   'Be2 Si2 H24 C4 N4 Cl12'
_cell_volume   630.37886930
_cell_formula_units_Z   2
loop_
 _symmetry_equiv_pos_site_id
 _symmetry_equiv_pos_as_xyz
  1  'x, y, z'
loop_
 _atom_site_type_symbol
 _atom_site_label
 _atom_site_symmetry_multiplicity
 _atom_site_fract_x
 _atom_site_fract_y
 _atom_site_fract_z
 _atom_site_occupancy
  C  C0  1  0.37979195  0.27687416  0.34946106  1
  C  C1  1  0.86479545  0.25860931  0.15050312  1
  C  C2  1  0.63583405  0.75937772  0.64932099  1
  C  C3  1  0.11952731  0.77743684  0.84980932  1
  N  N4  1  0.52133664  0.25312295  0.47754321  1
  N  N5  1  0.00043132  0.22951602  0.01725488  1
  N  N6  1  0.50231871  0.72780329  0.51537929  1
  N  N7  1  0.97799170  0.75421946  0.97779626  1
  H  H8  1  0.43684697  0.25926546  0.22408750  1
  H  H9  1  0.26470341  0.21490337  0.37084780  1
  H  H10  1  0.33397430  0.37287428  0.36151710  1
  H  H11  1  0.58086158  0.16604844  0.45788528  1
  H  H12  1  0.62293690  0.32052928  0.47179524  1
  H  H13  1  0.46987085  0.25632805  0.59934401  1
  H  H14  1  0.93112275  0.25544008  0.27387727  1
  H  H15  1  0.75736149  0.18905312  0.14278476  1
  H  H16  1  0.81148323  0.35154089  0.12847508  1
  H  H17  1  0.06094103  0.14414043  0.03405926  1
  H  H18  1  0.10202477  0.29581273  0.01738742  1
  H  H19  1  0.94486993  0.22924006  0.89539249  1
  H  H20  1  0.56977740  0.75317666  0.77247341  1
  H  H21  1  0.74771462  0.69274543  0.64056236  1
  H  H22  1  0.68302419  0.85381859  0.62902474  1
  H  H23  1  0.39565218  0.79066398  0.51654082  1
  H  H24  1  0.44906205  0.64030959  0.53029786  1
  H  H25  1  0.55760750  0.73046779  0.39358149  1
  H  H26  1  0.06292964  0.75908480  0.72446731  1
  H  H27  1  0.16414274  0.87354570  0.86102114  1
  H  H28  1  0.23536599  0.71576790  0.87208033  1
  H  H29  1  0.87595065  0.82173647  0.97149284  1
  H  H30  1  0.91897602  0.66719032  0.95855274  1
  H  H31  1  0.02940153  0.75765275  0.09963454  1
  Be  Be32  1  0.57733418  0.92743008  0.13561497  1
  Be  Be33  1  0.92059695  0.42701144  0.63767969  1
  Si  Si34  1  0.10043934  0.99168237  0.37833545  1
  Si  Si35  1  0.39898412  0.49175509  0.87560956  1
  Cl  Cl36  1  0.42851209  0.28853095  0.87588026  1
  Cl  Cl37  1  0.30453832  0.99605749  0.12720862  1
  Cl  Cl38  1  0.67535963  0.99041606  0.35569900  1
  Cl  Cl39  1  0.93328208  0.24162892  0.62904405  1
  Cl  Cl40  1  0.28897262  0.99837522  0.59174248  1
  Cl  Cl41  1  0.71691880  0.99171904  0.93905863  1
  Cl  Cl42  1  0.56558397  0.74210436  0.12670571  1
  Cl  Cl43  1  0.77940982  0.49070542  0.44089762  1
  Cl  Cl44  1  0.21266324  0.49924813  0.09093664  1
  Cl  Cl45  1  0.07268123  0.78827462  0.37683072  1
  Cl  Cl46  1  0.19214663  0.49569949  0.62692240  1
  Cl  Cl47  1  0.82397188  0.49114363  0.85787989  1
