# generated using pymatgen
data_BeAlH12C2(NCl3)2
_symmetry_space_group_name_H-M   'P 1'
_cell_length_a   6.66805766
_cell_length_b   12.04666981
_cell_length_c   8.17392910
_cell_angle_alpha   89.77045828
_cell_angle_beta   81.38180042
_cell_angle_gamma   82.48407568
_symmetry_Int_Tables_number   1
_chemical_formula_structural   BeAlH12C2(NCl3)2
_chemical_formula_sum   'Be2 Al2 H24 C4 N4 Cl12'
_cell_volume   643.52189141
_cell_formula_units_Z   2
loop_
 _symmetry_equiv_pos_site_id
 _symmetry_equiv_pos_as_xyz
  1  'x, y, z'
loop_
 _atom_site_type_symbol
 _atom_site_label
 _atom_site_symmetry_multiplicity
 _atom_site_fract_x
 _atom_site_fract_y
 _atom_site_fract_z
 _atom_site_occupancy
  C  C0  1  0.39596864  0.25642372  0.34707147  1
  C  C1  1  0.90324837  0.25104234  0.10873984  1
  C  C2  1  0.61792352  0.74295265  0.64330749  1
  C  C3  1  0.11940453  0.77450165  0.88665049  1
  N  N4  1  0.47465101  0.20958873  0.49716007  1
  N  N5  1  0.95305578  0.17560388  0.96131295  1
  N  N6  1  0.59132350  0.79665243  0.48347134  1
  N  N7  1  0.03647878  0.79642673  0.06348515  1
  H  H8  1  0.45294781  0.19761844  0.24396374  1
  H  H9  1  0.22882514  0.26509311  0.37041548  1
  H  H10  1  0.44563432  0.33881475  0.32224728  1
  H  H11  1  0.41407757  0.13522656  0.53504332  1
  H  H12  1  0.63262175  0.18913927  0.48007563  1
  H  H13  1  0.43461377  0.26436694  0.59703990  1
  H  H14  1  0.91568386  0.20015978  0.21930016  1
  H  H15  1  0.74761488  0.29406011  0.11340766  1
  H  H16  1  0.01122121  0.31273406  0.10023539  1
  H  H17  1  0.84865145  0.11784575  0.95804364  1
  H  H18  1  0.09476063  0.12730147  0.96180779  1
  H  H19  1  0.95513874  0.21904925  0.85122564  1
  H  H20  1  0.49437607  0.69240257  0.67870380  1
  H  H21  1  0.76600076  0.69043366  0.62800431  1
  H  H22  1  0.61524308  0.80885200  0.73565241  1
  H  H23  1  0.47277286  0.86286563  0.50071835  1
  H  H24  1  0.56025913  0.74260578  0.39537333  1
  H  H25  1  0.72320658  0.82947875  0.43394390  1
  H  H26  1  0.00883679  0.81450987  0.81148342  1
  H  H27  1  0.26227873  0.81067767  0.85920886  1
  H  H28  1  0.14515529  0.68418471  0.86302943  1
  H  H29  1  0.03099040  0.88067903  0.09309980  1
  H  H30  1  0.88748016  0.77593461  0.08970567  1
  H  H31  1  0.12631344  0.75404228  0.14227129  1
  Be  Be32  1  0.55058483  0.94116726  0.07247899  1
  Be  Be33  1  0.80572082  0.43781449  0.60369877  1
  Al  Al34  1  0.00870107  0.00194284  0.49530191  1
  Al  Al35  1  0.38624725  0.44739710  0.89051133  1
  Cl  Cl36  1  0.43158854  0.26874850  0.90348025  1
  Cl  Cl37  1  0.25494100  0.01093860  0.11926155  1
  Cl  Cl38  1  0.69263699  0.00056014  0.24692235  1
  Cl  Cl39  1  0.91798775  0.28484847  0.60429006  1
  Cl  Cl40  1  0.28365873  0.00555068  0.65337103  1
  Cl  Cl41  1  0.70168554  0.98808065  0.85508932  1
  Cl  Cl42  1  0.56634623  0.76995778  0.08672058  1
  Cl  Cl43  1  0.75299935  0.51159619  0.40957400  1
  Cl  Cl44  1  0.24051801  0.52216708  0.11842465  1
  Cl  Cl45  1  0.08673345  0.80205704  0.45209150  1
  Cl  Cl46  1  0.25077757  0.49472315  0.67480119  1
  Cl  Cl47  1  0.70213808  0.50126013  0.83908014  1
