# generated using pymatgen
data_MgBeH12C2(NCl3)2
_symmetry_space_group_name_H-M   'P 1'
_cell_length_a   6.19374312
_cell_length_b   11.22954297
_cell_length_c   8.72067269
_cell_angle_alpha   92.19131291
_cell_angle_beta   89.99354710
_cell_angle_gamma   89.97459685
_symmetry_Int_Tables_number   1
_chemical_formula_structural   MgBeH12C2(NCl3)2
_chemical_formula_sum   'Mg2 Be2 H24 C4 N4 Cl12'
_cell_volume   606.10449629
_cell_formula_units_Z   2
loop_
 _symmetry_equiv_pos_site_id
 _symmetry_equiv_pos_as_xyz
  1  'x, y, z'
loop_
 _atom_site_type_symbol
 _atom_site_label
 _atom_site_symmetry_multiplicity
 _atom_site_fract_x
 _atom_site_fract_y
 _atom_site_fract_z
 _atom_site_occupancy
  C  C0  1  0.29995764  0.26752944  0.35782558  1
  C  C1  1  0.79553538  0.26869257  0.14272022  1
  C  C2  1  0.70476965  0.76884641  0.64275555  1
  C  C3  1  0.20018478  0.76751297  0.85795000  1
  N  N4  1  0.44412124  0.24781191  0.48966658  1
  N  N5  1  0.93984784  0.25723892  0.00783859  1
  N  N6  1  0.55951301  0.75731887  0.50841942  1
  N  N7  1  0.05654401  0.74781640  0.99008364  1
  H  H8  1  0.39024280  0.25410384  0.25092063  1
  H  H9  1  0.16722638  0.20369267  0.36176788  1
  H  H10  1  0.23810764  0.35879160  0.36639020  1
  H  H11  1  0.51946958  0.16567418  0.48144977  1
  H  H12  1  0.56254059  0.31396590  0.49664723  1
  H  H13  1  0.36110781  0.24871723  0.59364037  1
  H  H14  1  0.89222029  0.26945354  0.24758360  1
  H  H15  1  0.68440417  0.19324498  0.13883151  1
  H  H16  1  0.70783496  0.35315754  0.13851454  1
  H  H17  1  0.03198869  0.18056958  0.00651646  1
  H  H18  1  0.04518182  0.33010965  0.00844724  1
  H  H19  1  0.85407177  0.25463234  0.90513533  1
  H  H20  1  0.60886243  0.76936353  0.74798962  1
  H  H21  1  0.81637292  0.69355769  0.63830293  1
  H  H22  1  0.79190106  0.85343822  0.63834858  1
  H  H23  1  0.45380300  0.83009963  0.50946027  1
  H  H24  1  0.46778651  0.68054616  0.50738643  1
  H  H25  1  0.64447399  0.75483921  0.40535182  1
  H  H26  1  0.10956955  0.75396563  0.75123260  1
  H  H27  1  0.26177102  0.85880589  0.86628774  1
  H  H28  1  0.33314190  0.70373820  0.86170675  1
  H  H29  1  0.93775267  0.81381701  0.99710602  1
  H  H30  1  0.98175482  0.66555036  0.98225710  1
  H  H31  1  0.13990664  0.74899857  0.09390820  1
  Be  Be32  1  0.59228668  0.93090421  0.13268643  1
  Be  Be33  1  0.90744228  0.43102193  0.63245725  1
  Mg  Mg34  1  0.09581145  0.93312332  0.36029031  1
  Mg  Mg35  1  0.40390364  0.43307350  0.86002427  1
  Cl  Cl36  1  0.42700027  0.23046225  0.85624968  1
  Cl  Cl37  1  0.28200462  0.00575690  0.14022839  1
  Cl  Cl38  1  0.73693663  0.00635449  0.33735295  1
  Cl  Cl39  1  0.92791384  0.25635205  0.64134659  1
  Cl  Cl40  1  0.26844385  0.98878222  0.58317830  1
  Cl  Cl41  1  0.75732073  0.98043066  0.95307412  1
  Cl  Cl42  1  0.57220394  0.75622988  0.14168020  1
  Cl  Cl43  1  0.74249787  0.48059588  0.45280767  1
  Cl  Cl44  1  0.23085300  0.48857462  0.08288213  1
  Cl  Cl45  1  0.07322247  0.73052546  0.35644963  1
  Cl  Cl46  1  0.21768280  0.50581711  0.64006634  1
  Cl  Cl47  1  0.76253306  0.50647315  0.83707991  1
