# generated using pymatgen
data_BeH12C3(NCl3)2
_symmetry_space_group_name_H-M   'P 1'
_cell_length_a   7.94836478
_cell_length_b   10.69932399
_cell_length_c   7.32661516
_cell_angle_alpha   85.68832090
_cell_angle_beta   91.07352563
_cell_angle_gamma   90.39606340
_symmetry_Int_Tables_number   1
_chemical_formula_structural   BeH12C3(NCl3)2
_chemical_formula_sum   'Be2 H24 C6 N4 Cl12'
_cell_volume   621.18904064
_cell_formula_units_Z   2
loop_
 _symmetry_equiv_pos_site_id
 _symmetry_equiv_pos_as_xyz
  1  'x, y, z'
loop_
 _atom_site_type_symbol
 _atom_site_label
 _atom_site_symmetry_multiplicity
 _atom_site_fract_x
 _atom_site_fract_y
 _atom_site_fract_z
 _atom_site_occupancy
  C  C0  1  0.42428514  0.27300596  0.45582546  1
  C  C1  1  0.95666235  0.23967758  0.08552879  1
  C  C2  1  0.54189768  0.71636117  0.54444925  1
  C  C3  1  0.05829626  0.76219829  0.91031176  1
  N  N4  1  0.58693435  0.23479075  0.54565028  1
  N  N5  1  0.12393567  0.26342809  0.00445480  1
  N  N6  1  0.39461383  0.76959726  0.43890229  1
  N  N7  1  0.90500487  0.76530572  0.02300980  1
  H  H8  1  0.44284307  0.28052960  0.30822673  1
  H  H9  1  0.33044611  0.20067256  0.49210677  1
  H  H10  1  0.38576473  0.36347995  0.50061667  1
  H  H11  1  0.62435706  0.14886409  0.50564793  1
  H  H12  1  0.67998547  0.30183204  0.50757699  1
  H  H13  1  0.57919381  0.22422332  0.68640068  1
  H  H14  1  0.97413531  0.21692968  0.23243468  1
  H  H15  1  0.89292896  0.16291787  0.02174729  1
  H  H16  1  0.88294425  0.32553910  0.06626496  1
  H  H17  1  0.20253300  0.18548912  0.02502387  1
  H  H18  1  0.17843011  0.33895362  0.06777940  1
  H  H19  1  0.11496965  0.29243330  0.86599574  1
  H  H20  1  0.50140515  0.68428770  0.68216502  1
  H  H21  1  0.59412361  0.63911819  0.47393728  1
  H  H22  1  0.63748604  0.78987545  0.55347375  1
  H  H23  1  0.35829535  0.85217907  0.49371854  1
  H  H24  1  0.29033705  0.71071963  0.44487564  1
  H  H25  1  0.42240331  0.78737616  0.30028097  1
  H  H26  1  0.02133543  0.77136264  0.76543240  1
  H  H27  1  0.13887968  0.84142603  0.94110093  1
  H  H28  1  0.12496562  0.67423320  0.94503369  1
  H  H29  1  0.84043058  0.84930587  0.99464140  1
  H  H30  1  0.81984613  0.69564738  -0.00329497  1
  H  H31  1  0.93484337  0.75393568  0.16379293  1
  Be  Be32  1  0.47774644  0.94969600  0.93714428  1
  Be  Be33  1  0.02224608  0.52427671  0.41479744  1
  C  C34  1  0.92334968  0.00136485  0.56591370  1
  C  C35  1  0.54354073  0.48359283  0.87709454  1
  Cl  Cl36  1  0.51850012  0.32853849  0.96663751  1
  Cl  Cl37  1  0.37394785  0.04144437  0.14270478  1
  Cl  Cl38  1  0.78101880  -0.00177276  0.37862464  1
  Cl  Cl39  1  0.98936299  0.15666679  0.57744146  1
  Cl  Cl40  1  0.34371733  0.98698678  0.70406589  1
  Cl  Cl41  1  0.71605574  0.01724160  0.88059521  1
  Cl  Cl42  1  0.49720269  0.76756282  0.02477647  1
  Cl  Cl43  1  0.78830748  0.45757307  0.35377026  1
  Cl  Cl44  1  0.19011764  0.50133091  0.21576876  1
  Cl  Cl45  1  -0.00156160  0.71304006  0.43540179  1
  Cl  Cl46  1  0.11957603  0.45246617  0.65718736  1
  Cl  Cl47  1  0.75238274  0.50437351  0.82526077  1
