# generated using pymatgen
data_BeBH12C2(NCl3)2
_symmetry_space_group_name_H-M   'P 1'
_cell_length_a   6.41105644
_cell_length_b   11.28476519
_cell_length_c   8.67727373
_cell_angle_alpha   87.03374084
_cell_angle_beta   86.34280143
_cell_angle_gamma   86.36776383
_symmetry_Int_Tables_number   1
_chemical_formula_structural   BeBH12C2(NCl3)2
_chemical_formula_sum   'Be2 B2 H24 C4 N4 Cl12'
_cell_volume   624.52241039
_cell_formula_units_Z   2
loop_
 _symmetry_equiv_pos_site_id
 _symmetry_equiv_pos_as_xyz
  1  'x, y, z'
loop_
 _atom_site_type_symbol
 _atom_site_label
 _atom_site_symmetry_multiplicity
 _atom_site_fract_x
 _atom_site_fract_y
 _atom_site_fract_z
 _atom_site_occupancy
  C  C0  1  0.37332205  0.23351105  0.34254404  1
  C  C1  1  0.87430434  0.24342208  0.11656779  1
  C  C2  1  0.65766889  0.76873859  0.65182969  1
  C  C3  1  0.13030509  0.74677831  0.90954605  1
  N  N4  1  0.43013147  0.27625668  0.49183366  1
  N  N5  1  0.97737022  0.25608963  0.95906146  1
  N  N6  1  0.52270512  0.76196710  0.52384822  1
  N  N7  1  0.07659567  0.75553169  0.07796005  1
  H  H8  1  0.51325951  0.22420530  0.26477949  1
  H  H9  1  0.30109172  0.14854505  0.36100535  1
  H  H10  1  0.26480489  0.30098987  0.29188234  1
  H  H11  1  0.53418013  0.21926587  0.54893509  1
  H  H12  1  0.50082200  0.35764530  0.47033691  1
  H  H13  1  0.29682545  0.29229148  0.56381946  1
  H  H14  1  0.99387692  0.22335759  0.19989809  1
  H  H15  1  0.77130783  0.16975622  0.11758032  1
  H  H16  1  0.78610888  0.32713767  0.14212512  1
  H  H17  1  0.07151062  0.18098239  0.93407453  1
  H  H18  1  0.07008569  0.32878814  0.95270356  1
  H  H19  1  0.86599588  0.27010433  0.87747146  1
  H  H20  1  0.57753630  0.73560405  0.75969300  1
  H  H21  1  0.81026175  0.71712142  0.63970481  1
  H  H22  1  0.68821403  0.86185732  0.66769464  1
  H  H23  1  0.15519047  0.85541001  0.42883397  1
  H  H24  1  0.48093419  0.67658468  0.51594190  1
  H  H25  1  0.60222019  0.78222331  0.42080124  1
  H  H26  1  0.02782070  0.68555307  0.86253361  1
  H  H27  1  0.10740222  0.83533523  0.85374877  1
  H  H28  1  0.29335401  0.71333661  0.89258445  1
  H  H29  1  0.91499597  0.77102518  0.09916176  1
  H  H30  1  0.11965569  0.67834215  0.14121605  1
  H  H31  1  0.15105867  0.82487541  0.12022372  1
  Be  Be32  1  0.54752922  0.93494828  0.03374350  1
  Be  Be33  1  0.88306821  0.47612749  0.43682759  1
  B  B34  1  0.08154001  0.94551584  0.47964332  1
  B  B35  1  0.44687991  0.43953402  0.88023948  1
  Cl  Cl36  1  0.48807288  0.27281224  0.86449271  1
  Cl  Cl37  1  0.28022286  0.01791879  0.08354282  1
  Cl  Cl38  1  0.84879876  0.01267993  0.41197614  1
  Cl  Cl39  1  0.93204632  0.32665159  0.55659490  1
  Cl  Cl40  1  0.20834110  0.01053051  0.62323903  1
  Cl  Cl41  1  0.76555044  0.00353274  0.90708405  1
  Cl  Cl42  1  0.58321037  0.77599114  0.12115523  1
  Cl  Cl43  1  0.63075959  0.49415267  0.32975280  1
  Cl  Cl44  1  0.25921165  0.46491302  0.05366618  1
  Cl  Cl45  1  0.08051380  0.59503431  0.40459554  1
  Cl  Cl46  1  0.32481798  0.50387429  0.70797259  1
  Cl  Cl47  1  0.69854409  0.50322864  0.90583010  1
