# generated using pymatgen
data_BiBH12C2(NCl3)2
_symmetry_space_group_name_H-M   'P 1'
_cell_length_a   7.85995017
_cell_length_b   10.77251439
_cell_length_c   8.12857179
_cell_angle_alpha   80.34241583
_cell_angle_beta   83.57058100
_cell_angle_gamma   81.16853167
_symmetry_Int_Tables_number   1
_chemical_formula_structural   BiBH12C2(NCl3)2
_chemical_formula_sum   'Bi2 B2 H24 C4 N4 Cl12'
_cell_volume   667.82804106
_cell_formula_units_Z   2
loop_
 _symmetry_equiv_pos_site_id
 _symmetry_equiv_pos_as_xyz
  1  'x, y, z'
loop_
 _atom_site_type_symbol
 _atom_site_label
 _atom_site_symmetry_multiplicity
 _atom_site_fract_x
 _atom_site_fract_y
 _atom_site_fract_z
 _atom_site_occupancy
  C  C0  1  0.48855294  0.24394893  0.43796779  1
  C  C1  1  0.91785955  0.24011382  0.04652636  1
  C  C2  1  0.51075045  0.77404778  0.55459825  1
  C  C3  1  0.11570145  0.74130216  0.94544222  1
  N  N4  1  0.59361032  0.24207733  0.57983753  1
  N  N5  1  0.04940989  0.27652958  0.90785119  1
  N  N6  1  0.35697867  0.77889258  0.46263742  1
  N  N7  1  0.94160603  0.75427505  0.03926132  1
  H  H8  1  0.55744335  0.28352363  0.32063324  1
  H  H9  1  0.46984990  0.14653166  0.43092450  1
  H  H10  1  0.36401634  0.30252382  0.46047089  1
  H  H11  1  0.70975412  0.18214240  0.57145378  1
  H  H12  1  0.61871795  0.33233034  0.58675761  1
  H  H13  1  0.52918013  0.20952841  0.69345810  1
  H  H14  1  0.97732662  0.22300016  0.16475828  1
  H  H15  1  0.87278712  0.15375239  0.02513512  1
  H  H16  1  0.80921398  0.31744835  0.04633357  1
  H  H17  1  0.14512411  0.20117502  0.89139319  1
  H  H18  1  0.10761489  0.35121671  0.93020598  1
  H  H19  1  0.99564981  0.30629834  0.79487279  1
  H  H20  1  0.47470855  0.75798328  0.68999246  1
  H  H21  1  0.61254258  0.69693062  0.52485519  1
  H  H22  1  0.56366939  0.86419906  0.52162257  1
  H  H23  1  0.00777570  0.79602745  0.61065916  1
  H  H24  1  0.31376757  0.69178623  0.48860852  1
  H  H25  1  0.39189659  0.79421804  0.33591173  1
  H  H26  1  0.10722641  0.69557104  0.83673704  1
  H  H27  1  0.15395416  0.83586213  0.90730909  1
  H  H28  1  0.21107816  0.68240997  0.02435259  1
  H  H29  1  0.86618472  0.83776331  0.99234470  1
  H  H30  1  0.87716755  0.67960089  0.02459881  1
  H  H31  1  0.94793055  0.75444459  0.16543360  1
  B  B32  1  0.40543558  0.00368351  0.99323847  1
  B  B33  1  0.97551542  0.46840018  0.36302323  1
  Bi  Bi34  1  0.08311805  0.94564325  0.52092707  1
  Bi  Bi35  1  0.51730999  0.49727477  0.00578409  1
  Cl  Cl36  1  0.49190986  0.14596878  0.02570903  1
  Cl  Cl37  1  0.19438527  0.99167817  0.12090367  1
  Cl  Cl38  1  0.82317412  0.98219032  0.34318650  1
  Cl  Cl39  1  0.99914985  0.31540268  0.51204427  1
  Cl  Cl40  1  0.35694621  0.02845004  0.76423777  1
  Cl  Cl41  1  0.88179205  0.03296880  0.77217913  1
  Cl  Cl42  1  0.54750926  0.85384080  0.04252195  1
  Cl  Cl43  1  0.74355179  0.50745652  0.31559957  1
  Cl  Cl44  1  0.12462664  0.44412105  0.17230687  1
  Cl  Cl45  1  0.03284776  0.60166170  0.44866729  1
  Cl  Cl46  1  0.36262951  0.47414120  0.74553945  1
  Cl  Cl47  1  0.80107283  0.55974141  0.84148365  1
