# generated using pymatgen
data_BH12PbC2(NCl3)2
_symmetry_space_group_name_H-M   'P 1'
_cell_length_a   7.35208059
_cell_length_b   11.05453768
_cell_length_c   8.70879001
_cell_angle_alpha   85.46745721
_cell_angle_beta   92.44159554
_cell_angle_gamma   82.18404438
_symmetry_Int_Tables_number   1
_chemical_formula_structural   BH12PbC2(NCl3)2
_chemical_formula_sum   'B2 H24 Pb2 C4 N4 Cl12'
_cell_volume   698.00792105
_cell_formula_units_Z   2
loop_
 _symmetry_equiv_pos_site_id
 _symmetry_equiv_pos_as_xyz
  1  'x, y, z'
loop_
 _atom_site_type_symbol
 _atom_site_label
 _atom_site_symmetry_multiplicity
 _atom_site_fract_x
 _atom_site_fract_y
 _atom_site_fract_z
 _atom_site_occupancy
  C  C0  1  0.41895495  0.21723047  0.43212422  1
  C  C1  1  0.96502976  0.23885846  0.08640746  1
  C  C2  1  0.47804427  0.78535499  0.46492714  1
  C  C3  1  0.13918234  0.78524030  0.75314126  1
  N  N4  1  0.53920617  0.24500684  0.56194253  1
  N  N5  1  0.06304795  0.26949388  0.94528332  1
  N  N6  1  0.38568914  0.68863869  0.39808203  1
  N  N7  1  0.02634149  0.75756507  0.27635574  1
  H  H8  1  0.43482555  0.27978108  0.33157728  1
  H  H9  1  0.46164897  0.12299967  0.40518703  1
  H  H10  1  0.27628645  0.23159268  0.46489331  1
  H  H11  1  0.67207907  0.25141373  0.52961380  1
  H  H12  1  0.48989938  0.32797266  0.60588956  1
  H  H13  1  0.55050543  0.17681313  0.65220983  1
  H  H14  1  0.04522118  0.25928021  0.18740473  1
  H  H15  1  0.94754538  0.14204528  0.09237023  1
  H  H16  1  0.83113868  0.29632236  0.07881596  1
  H  H17  1  0.20221284  0.23647681  0.95950015  1
  H  H18  1  0.04577857  0.36505351  0.92082374  1
  H  H19  1  0.00830984  0.22811155  0.85369054  1
  H  H20  1  0.41609101  0.80767162  0.57294946  1
  H  H21  1  0.62363510  0.75132073  0.49072896  1
  H  H22  1  0.46480667  0.86649330  0.38266004  1
  H  H23  1  0.24651365  0.72217739  0.34779024  1
  H  H24  1  0.37692735  0.61726029  0.48207213  1
  H  H25  1  0.46344054  0.65051024  0.31377701  1
  H  H26  1  0.11441090  0.73216901  0.65563001  1
  H  H27  1  0.25475830  0.83767461  0.75353400  1
  H  H28  1  0.01918553  0.82174912  0.81354975  1
  H  H29  1  0.95945045  0.84544548  0.25392936  1
  H  H30  1  0.95310454  0.71703067  0.35914112  1
  H  H31  1  0.00389824  0.71262973  0.17996030  1
  B  B32  1  0.44697298  0.99858999  0.99300438  1
  B  B33  1  0.91881812  0.45795022  0.42359089  1
  Pb  Pb34  1  0.05509890  0.99682427  0.56238018  1
  Pb  Pb35  1  0.28326848  0.62327094  0.93758655  1
  Cl  Cl36  1  0.50349006  0.14577696  0.05918465  1
  Cl  Cl37  1  0.24170692  0.95533707  0.08852938  1
  Cl  Cl38  1  0.76478496  0.99448066  0.38531536  1
  Cl  Cl39  1  0.95133383  0.30325632  0.54004046  1
  Cl  Cl40  1  0.38951708  0.03419177  0.77586393  1
  Cl  Cl41  1  0.86110843  0.07548799  0.78521359  1
  Cl  Cl42  1  0.63286966  0.86964454  0.02091714  1
  Cl  Cl43  1  0.71102323  0.46584450  0.28962305  1
  Cl  Cl44  1  0.13015009  0.46840591  0.31875892  1
  Cl  Cl45  1  0.88259167  0.57522085  0.56066438  1
  Cl  Cl46  1  0.39486238  0.49286999  0.70446414  1
  Cl  Cl47  1  0.95525727  0.55554270  0.94919734  1
