# generated using pymatgen
data_TlBH12C2(NCl3)2
_symmetry_space_group_name_H-M   'P 1'
_cell_length_a   8.10077450
_cell_length_b   9.38988373
_cell_length_c   8.76493959
_cell_angle_alpha   85.68482668
_cell_angle_beta   90.00602335
_cell_angle_gamma   89.99140486
_symmetry_Int_Tables_number   1
_chemical_formula_structural   TlBH12C2(NCl3)2
_chemical_formula_sum   'Tl2 B2 H24 C4 N4 Cl12'
_cell_volume   664.81806072
_cell_formula_units_Z   2
loop_
 _symmetry_equiv_pos_site_id
 _symmetry_equiv_pos_as_xyz
  1  'x, y, z'
loop_
 _atom_site_type_symbol
 _atom_site_label
 _atom_site_symmetry_multiplicity
 _atom_site_fract_x
 _atom_site_fract_y
 _atom_site_fract_z
 _atom_site_occupancy
  C  C0  1  0.48316433  0.28798617  0.43549428  1
  C  C1  1  0.98347595  0.21214269  0.06409689  1
  C  C2  1  0.58525179  0.73651780  0.59219721  1
  C  C3  1  0.08612459  0.76320795  0.90792529  1
  N  N4  1  0.54951647  0.27614746  0.59380755  1
  N  N5  1  0.04976753  0.22341934  0.90578797  1
  N  N6  1  0.41157619  0.73769694  0.53859901  1
  N  N7  1  0.91252256  0.76210471  0.96165488  1
  H  H8  1  0.57718233  0.25482525  0.35569814  1
  H  H9  1  0.37518100  0.21815578  0.43235083  1
  H  H10  1  0.44624054  0.39887387  0.40636233  1
  H  H11  1  0.56264903  0.17083947  0.63704916  1
  H  H12  1  0.66419774  0.32405476  0.60068742  1
  H  H13  1  0.46802170  0.32797517  0.66558937  1
  H  H14  1  0.07693529  0.24696115  0.14353631  1
  H  H15  1  0.94817479  0.10103964  0.09425032  1
  H  H16  1  0.87450758  0.28092041  0.06658636  1
  H  H17  1  0.16454993  0.17561262  0.89909168  1
  H  H18  1  0.06274652  0.32859988  0.86210226  1
  H  H19  1  0.96835143  0.17120103  0.83424552  1
  H  H20  1  0.58493046  0.75403870  0.71396709  1
  H  H21  1  0.64262492  0.63378919  0.57496410  1
  H  H22  1  0.65260488  0.82291274  0.52934549  1
  H  H23  1  0.35319617  0.83257704  0.56894058  1
  H  H24  1  0.34802529  0.65011449  0.59143139  1
  H  H25  1  0.40183300  0.73587058  0.42149609  1
  H  H26  1  0.08560999  0.74646894  0.78597223  1
  H  H27  1  0.14385455  0.86561990  0.92588386  1
  H  H28  1  0.15327707  0.67628401  0.97013665  1
  H  H29  1  0.84895502  0.84977025  0.90896022  1
  H  H30  1  0.85396299  0.66733645  0.93124368  1
  H  H31  1  0.90292996  0.76378351  0.07877814  1
  B  B32  1  0.46658769  0.96433618  0.11186379  1
  B  B33  1  0.96583915  0.53626025  0.38854084  1
  Tl  Tl34  1  0.98844424  0.02825656  0.46516192  1
  Tl  Tl35  1  0.48789321  0.47235485  0.03471788  1
  Cl  Cl36  1  0.44269949  0.13703325  0.99547710  1
  Cl  Cl37  1  0.27148087  0.92143682  0.21803554  1
  Cl  Cl38  1  0.64037787  0.97716057  0.24792306  1
  Cl  Cl39  1  0.94199577  0.36343748  0.50470573  1
  Cl  Cl40  1  0.27630137  0.02048554  0.65101633  1
  Cl  Cl41  1  0.79700753  0.03369256  0.75114723  1
  Cl  Cl42  1  0.50849807  0.82083209  0.98302775  1
  Cl  Cl43  1  0.77094995  0.57909913  0.28201152  1
  Cl  Cl44  1  0.14000586  0.52369826  0.25281416  1
  Cl  Cl45  1  0.00726744  0.67966119  0.51762106  1
  Cl  Cl46  1  0.29671072  0.46584345  0.74855209  1
  Cl  Cl47  1  0.77602291  0.47964218  0.84944832  1
