# generated using pymatgen
data_BPH12C2(I3N)2
_symmetry_space_group_name_H-M   'P 1'
_cell_length_a   8.74137772
_cell_length_b   10.95088250
_cell_length_c   8.49530790
_cell_angle_alpha   87.33535479
_cell_angle_beta   90.06319197
_cell_angle_gamma   88.56347729
_symmetry_Int_Tables_number   1
_chemical_formula_structural   BPH12C2(I3N)2
_chemical_formula_sum   'B2 P2 H24 C4 I12 N4'
_cell_volume   812.08345197
_cell_formula_units_Z   2
loop_
 _symmetry_equiv_pos_site_id
 _symmetry_equiv_pos_as_xyz
  1  'x, y, z'
loop_
 _atom_site_type_symbol
 _atom_site_label
 _atom_site_symmetry_multiplicity
 _atom_site_fract_x
 _atom_site_fract_y
 _atom_site_fract_z
 _atom_site_occupancy
  C  C0  1  0.45242087  0.25635880  0.45170102  1
  C  C1  1  0.94473234  0.24959167  0.05065503  1
  C  C2  1  0.54861250  0.74941620  0.55178966  1
  C  C3  1  0.04680551  0.75195974  0.93865494  1
  N  N4  1  0.58653153  0.24918347  0.56033570  1
  N  N5  1  0.07645609  0.25888524  0.94087690  1
  N  N6  1  0.41141046  0.75553146  0.44717707  1
  N  N7  1  0.92142712  0.75137740  0.05670964  1
  H  H8  1  0.49379721  0.25812625  0.33004381  1
  H  H9  1  0.38257883  0.17599314  0.47545701  1
  H  H10  1  0.38497500  0.33925390  0.47375589  1
  H  H11  1  0.65691582  0.17422842  0.53668138  1
  H  H12  1  0.65331473  0.32581121  0.54590618  1
  H  H13  1  0.55421979  0.24042133  0.67810126  1
  H  H14  1  0.98782829  0.24541313  0.17182495  1
  H  H15  1  0.88323691  0.16651856  0.02806787  1
  H  H16  1  0.86950740  0.32997474  0.02958107  1
  H  H17  1  0.14927226  0.18298620  0.95540044  1
  H  H18  1  0.14052166  0.33513644  0.96194703  1
  H  H19  1  0.04258818  0.26614071  0.82326357  1
  H  H20  1  0.51079998  0.74600566  0.67462841  1
  H  H21  1  0.61597765  0.66694644  0.52723244  1
  H  H22  1  0.61660486  0.83051826  0.52609776  1
  H  H23  1  0.34286328  0.83158022  0.46728932  1
  H  H24  1  0.34267729  0.68052264  0.46676984  1
  H  H25  1  0.44121080  0.76086065  0.32778094  1
  H  H26  1  0.99611509  0.75325272  0.82083244  1
  H  H27  1  0.11337823  0.83387011  0.95202159  1
  H  H28  1  0.11914805  0.66992772  0.95965176  1
  H  H29  1  0.84733156  0.82597228  0.03652995  1
  H  H30  1  0.85653676  0.67359294  0.04873862  1
  H  H31  1  0.96131460  0.75307345  0.17191916  1
  B  B32  1  0.38815350  0.99033519  0.99434394  1
  B  B33  1  0.99102313  0.49053085  0.38549006  1
  P  P34  1  0.97888705  0.97685543  0.53690252  1
  P  P35  1  0.54483269  0.47232162  0.97153932  1
  I  I36  1  0.50792737  0.17406200  0.99935921  1
  I  I37  1  0.20628415  0.00009273  0.18932656  1
  I  I38  1  0.76853344  0.00944317  0.33001846  1
  I  I39  1  0.01500540  0.30576933  0.51734172  1
  I  I40  1  0.28334423  0.99933129  0.74355545  1
  I  I41  1  0.81346581  0.00658700  0.77351627  1
  I  I42  1  0.50373691  0.80297305  0.03005555  1
  I  I43  1  0.74605563  0.49574999  0.28208299  1
  I  I44  1  0.18463559  0.49109218  0.20411989  1
  I  I45  1  0.00598589  0.67929802  0.49086253  1
  I  I46  1  0.33865265  0.49275922  0.75877646  1
  I  I47  1  0.77238963  0.52444610  0.80558300  1
