# generated using pymatgen
data_HgBH12C2(NCl3)2
_symmetry_space_group_name_H-M   'P 1'
_cell_length_a   8.23383677
_cell_length_b   9.30837398
_cell_length_c   8.54588194
_cell_angle_alpha   88.61171710
_cell_angle_beta   87.35883660
_cell_angle_gamma   89.17102745
_symmetry_Int_Tables_number   1
_chemical_formula_structural   HgBH12C2(NCl3)2
_chemical_formula_sum   'Hg2 B2 H24 C4 N4 Cl12'
_cell_volume   654.04113384
_cell_formula_units_Z   2
loop_
 _symmetry_equiv_pos_site_id
 _symmetry_equiv_pos_as_xyz
  1  'x, y, z'
loop_
 _atom_site_type_symbol
 _atom_site_label
 _atom_site_symmetry_multiplicity
 _atom_site_fract_x
 _atom_site_fract_y
 _atom_site_fract_z
 _atom_site_occupancy
  C  C0  1  0.43602866  0.22819601  0.45445179  1
  C  C1  1  0.97026898  0.27367165  0.09479762  1
  C  C2  1  0.51149675  0.75062831  0.58656830  1
  C  C3  1  0.05029087  0.73809680  0.91739399  1
  N  N4  1  0.58175029  0.17773652  0.53686579  1
  N  N5  1  0.03106936  0.24262042  0.93323920  1
  N  N6  1  0.46789286  0.78966932  0.42369850  1
  N  N7  1  0.92580717  0.81817451  0.01270636  1
  H  H8  1  0.47421815  0.28280224  0.34473175  1
  H  H9  1  0.36339118  0.13486598  0.42803485  1
  H  H10  1  0.36413570  0.30114393  0.52966072  1
  H  H11  1  0.65544038  0.10590631  0.46800521  1
  H  H12  1  0.65506514  0.26058647  0.56573604  1
  H  H13  1  0.55118821  0.12443496  0.64195366  1
  H  H14  1  0.06883179  0.31959528  0.15857034  1
  H  H15  1  0.92824259  0.17415303  0.15379241  1
  H  H16  1  0.86873838  0.35007715  0.08717408  1
  H  H17  1  0.13107423  0.17384355  0.93306324  1
  H  H18  1  0.07097451  0.33428731  0.87127047  1
  H  H19  1  0.94320625  0.18930793  0.86948222  1
  H  H20  1  0.40173675  0.72021273  0.65581805  1
  H  H21  1  0.59770103  0.66019255  0.58447393  1
  H  H22  1  0.56932775  0.84252902  0.63779178  1
  H  H23  1  0.36661926  0.85853101  0.42539173  1
  H  H24  1  0.43650965  0.70157749  0.35982633  1
  H  H25  1  0.56731962  0.84324147  0.36491064  1
  H  H26  1  0.99089839  0.69110606  0.81929055  1
  H  H27  1  0.14311660  0.81353004  0.87272909  1
  H  H28  1  0.10583382  0.65352044  0.98907226  1
  H  H29  1  0.87394967  0.90108345  0.94163035  1
  H  H30  1  0.83130715  0.75403572  0.05270688  1
  H  H31  1  0.97097240  0.86500913  0.10985005  1
  B  B32  1  0.41887238  0.01143833  0.01050909  1
  B  B33  1  0.89351666  0.48476805  0.43560741  1
  Hg  Hg34  1  0.09862691  0.96212061  0.53159558  1
  Hg  Hg35  1  0.45965653  0.48506774  0.96322184  1
  Cl  Cl36  1  0.54741785  0.16357870  0.05713882  1
  Cl  Cl37  1  0.24074674  0.00143128  0.15399971  1
  Cl  Cl38  1  0.77477277  0.96020731  0.32667328  1
  Cl  Cl39  1  0.96168624  0.31682608  0.50013011  1
  Cl  Cl40  1  0.33941835  0.04269077  0.81037784  1
  Cl  Cl41  1  0.81714678  0.03524278  0.76471597  1
  Cl  Cl42  1  0.52715978  0.83593059  0.01382069  1
  Cl  Cl43  1  0.71603239  0.49699859  0.32879442  1
  Cl  Cl44  1  0.31060083  0.52357582  0.21197154  1
  Cl  Cl45  1  0.99577287  0.63955998  0.47291173  1
  Cl  Cl46  1  0.26131106  0.46603476  0.74905193  1
  Cl  Cl47  1  0.73288203  0.50024010  0.84508849  1
