# generated using pymatgen
data_BH12AuC2(NCl3)2
_symmetry_space_group_name_H-M   'P 1'
_cell_length_a   7.20425304
_cell_length_b   10.98163223
_cell_length_c   8.71643347
_cell_angle_alpha   76.30724112
_cell_angle_beta   100.73080334
_cell_angle_gamma   98.95788021
_symmetry_Int_Tables_number   1
_chemical_formula_structural   BH12AuC2(NCl3)2
_chemical_formula_sum   'B2 H24 Au2 C4 N4 Cl12'
_cell_volume   653.76382070
_cell_formula_units_Z   2
loop_
 _symmetry_equiv_pos_site_id
 _symmetry_equiv_pos_as_xyz
  1  'x, y, z'
loop_
 _atom_site_type_symbol
 _atom_site_label
 _atom_site_symmetry_multiplicity
 _atom_site_fract_x
 _atom_site_fract_y
 _atom_site_fract_z
 _atom_site_occupancy
  C  C0  1  0.40481562  0.27134492  0.41792883  1
  C  C1  1  0.99810193  0.32890327  0.01298631  1
  C  C2  1  0.61678347  0.75911269  0.62306014  1
  C  C3  1  0.03332850  0.68680988  0.91023961  1
  N  N4  1  0.51796393  0.27852181  0.57707786  1
  N  N5  1  0.09866982  0.29415461  0.89839009  1
  N  N6  1  0.48509479  0.72412662  0.48400779  1
  N  N7  1  0.97637539  0.76049747  0.01285971  1
  H  H8  1  0.43606639  0.36071672  0.33476019  1
  H  H9  1  0.44525762  0.19373638  0.37724732  1
  H  H10  1  0.25391188  0.25554518  0.42904893  1
  H  H11  1  0.66138004  0.29731503  0.56896678  1
  H  H12  1  0.48065592  0.34961316  0.62636924  1
  H  H13  1  0.49932880  0.19374219  0.65774063  1
  H  H14  1  0.10270027  0.37123845  0.09960582  1
  H  H15  1  0.91936240  0.24391970  0.07551195  1
  H  H16  1  0.89793965  0.39596507  0.94815931  1
  H  H17  1  0.18280796  0.22343184  0.95779505  1
  H  H18  1  0.19013812  0.36916502  0.83978299  1
  H  H19  1  0.00319017  0.25650723  0.81292768  1
  H  H20  1  0.53911885  0.73956633  0.72440342  1
  H  H21  1  0.73186473  0.69976653  0.64844282  1
  H  H22  1  0.67253868  0.85874910  0.59263802  1
  H  H23  1  0.37246843  0.77860081  0.44919642  1
  H  H24  1  0.42828886  0.62967750  0.51763131  1
  H  H25  1  0.55865839  0.73773902  0.38833899  1
  H  H26  1  0.90619231  0.63436043  0.85625496  1
  H  H27  1  0.10545154  0.75150889  0.81734066  1
  H  H28  1  0.12962839  0.62100272  0.98552277  1
  H  H29  1  0.89317237  0.83076429  0.94921437  1
  H  H30  1  0.90320031  0.70269603  0.10069705  1
  H  H31  1  0.09513185  0.80672350  0.07143057  1
  B  B32  1  0.44613974  0.02390930  0.12339696  1
  B  B33  1  0.92182315  0.45848219  0.38094952  1
  Au  Au34  1  0.10733098  0.88078198  0.48219357  1
  Au  Au35  1  0.08607287  0.02200803  0.72085970  1
  Cl  Cl36  1  0.51154532  0.16125213  0.96396691  1
  Cl  Cl37  1  0.19836597  0.03698515  0.15118905  1
  Cl  Cl38  1  0.61332278  0.03105268  0.30803629  1
  Cl  Cl39  1  0.91209976  0.28369291  0.41955721  1
  Cl  Cl40  1  0.35627416  0.97467217  0.64553625  1
  Cl  Cl41  1  0.81724805  0.04463609  0.80747057  1
  Cl  Cl42  1  0.44223372  0.86864231  0.06688070  1
  Cl  Cl43  1  0.72644426  0.50915580  0.21309321  1
  Cl  Cl44  1  0.15338529  0.53530863  0.31768387  1
  Cl  Cl45  1  0.88952217  0.49908097  0.56953661  1
  Cl  Cl46  1  0.41233248  0.47593323  0.73987214  1
  Cl  Cl47  1  0.86629568  0.78896232  0.32449644  1
