# generated using pymatgen
data_HfBH12C2(NCl3)2
_symmetry_space_group_name_H-M   'P 1'
_cell_length_a   7.27841690
_cell_length_b   10.72018151
_cell_length_c   8.92434100
_cell_angle_alpha   92.08197491
_cell_angle_beta   94.46169483
_cell_angle_gamma   89.51535548
_symmetry_Int_Tables_number   1
_chemical_formula_structural   HfBH12C2(NCl3)2
_chemical_formula_sum   'Hf2 B2 H24 C4 N4 Cl12'
_cell_volume   693.75064382
_cell_formula_units_Z   2
loop_
 _symmetry_equiv_pos_site_id
 _symmetry_equiv_pos_as_xyz
  1  'x, y, z'
loop_
 _atom_site_type_symbol
 _atom_site_label
 _atom_site_symmetry_multiplicity
 _atom_site_fract_x
 _atom_site_fract_y
 _atom_site_fract_z
 _atom_site_occupancy
  C  C0  1  0.49042346  0.19427600  0.44473071  1
  C  C1  1  0.00089653  0.23057048  0.01315665  1
  C  C2  1  0.44854277  0.75382133  0.45024054  1
  C  C3  1  0.10060692  0.74715209  0.98104362  1
  N  N4  1  0.56347852  0.24798259  0.59496776  1
  N  N5  1  0.11461212  0.26324878  0.89281948  1
  N  N6  1  0.41765078  0.72851104  0.28733510  1
  N  N7  1  0.05649083  0.74217242  0.13993947  1
  H  H8  1  0.56871384  0.23314273  0.35795969  1
  H  H9  1  0.50761869  0.09299948  0.44608756  1
  H  H10  1  0.34475578  0.21950921  0.42679630  1
  H  H11  1  0.70434005  0.26320790  0.59592908  1
  H  H12  1  0.49905622  0.33178246  0.61985152  1
  H  H13  1  0.54061773  0.18722988  0.67901989  1
  H  H14  1  0.07536805  0.22112155  0.12450683  1
  H  H15  1  0.93165338  0.14172832  0.98257533  1
  H  H16  1  0.89284475  0.30200711  0.02598582  1
  H  H17  1  0.17995329  0.18570722  0.85251153  1
  H  H18  1  0.21541596  0.32467068  0.93209329  1
  H  H19  1  0.98848201  0.43047027  0.72034820  1
  H  H20  1  0.33751109  0.71187480  0.50752222  1
  H  H21  1  0.58199341  0.71802711  0.49836987  1
  H  H22  1  0.44253088  0.85467249  0.47386107  1
  H  H23  1  0.13044631  0.90478956  0.40981650  1
  H  H24  1  0.44565057  0.63618558  0.26464760  1
  H  H25  1  0.51136566  0.77757479  0.23339728  1
  H  H26  1  0.97423860  0.75479961  0.90694398  1
  H  H27  1  0.18981917  0.82636227  0.96323026  1
  H  H28  1  0.17452939  0.66143841  0.94987404  1
  H  H29  1  0.99068617  0.82319421  0.17175166  1
  H  H30  1  0.82321446  0.70481652  0.32381776  1
  H  H31  1  0.18644395  0.74291451  0.20718307  1
  B  B32  1  0.47689208  0.02034058  0.03660171  1
  B  B33  1  0.07531291  0.51510024  0.68162781  1
  Hf  Hf34  1  0.99346657  0.01832340  0.50919399  1
  Hf  Hf35  1  0.88983477  0.57721505  0.19982144  1
  Cl  Cl36  1  0.55578050  0.16505587  0.98335549  1
  Cl  Cl37  1  0.30500765  0.01716724  0.16170921  1
  Cl  Cl38  1  0.80673999  0.99499470  0.27603635  1
  Cl  Cl39  1  0.00251534  0.23850028  0.48605147  1
  Cl  Cl40  1  0.26056472  0.01020206  0.68644983  1
  Cl  Cl41  1  0.77241827  0.95746575  0.66878317  1
  Cl  Cl42  1  0.56252653  0.88035517  0.96493459  1
  Cl  Cl43  1  0.68812677  0.46059812  0.33992793  1
  Cl  Cl44  1  0.17050708  0.46843593  0.24836190  1
  Cl  Cl45  1  0.97303477  0.64985111  0.61320938  1
  Cl  Cl46  1  0.31837985  0.50550397  0.70154281  1
  Cl  Cl47  1  0.71896457  0.56300742  0.96437582  1
