# generated using pymatgen
data_BaBH12C2(NCl3)2
_symmetry_space_group_name_H-M   'P 1'
_cell_length_a   9.07026028
_cell_length_b   9.94120266
_cell_length_c   7.76208568
_cell_angle_alpha   88.30630942
_cell_angle_beta   79.30024599
_cell_angle_gamma   88.76097885
_symmetry_Int_Tables_number   1
_chemical_formula_structural   BaBH12C2(NCl3)2
_chemical_formula_sum   'Ba2 B2 H24 C4 N4 Cl12'
_cell_volume   687.33979103
_cell_formula_units_Z   2
loop_
 _symmetry_equiv_pos_site_id
 _symmetry_equiv_pos_as_xyz
  1  'x, y, z'
loop_
 _atom_site_type_symbol
 _atom_site_label
 _atom_site_symmetry_multiplicity
 _atom_site_fract_x
 _atom_site_fract_y
 _atom_site_fract_z
 _atom_site_occupancy
  C  C0  1  0.44477713  0.25072439  0.44293029  1
  C  C1  1  0.92152760  0.26773458  0.01052388  1
  C  C2  1  0.50107000  0.73567985  0.51805768  1
  C  C3  1  0.10417225  0.75264801  0.98262704  1
  N  N4  1  0.56988980  0.24800006  0.54205335  1
  N  N5  1  0.06045764  0.26314855  0.87477849  1
  N  N6  1  0.41074615  0.64805531  0.42984023  1
  N  N7  1  0.97103068  0.79218012  0.11209359  1
  H  H8  1  0.48868009  0.28120884  0.30666399  1
  H  H9  1  0.40293268  0.14855119  0.44135298  1
  H  H10  1  0.35505634  0.31838703  0.50493097  1
  H  H11  1  0.64979170  0.17410350  0.48462737  1
  H  H12  1  0.62142213  0.33967805  0.53796046  1
  H  H13  1  0.53328150  0.22206545  0.67323688  1
  H  H14  1  0.94953611  0.24062997  0.13820483  1
  H  H15  1  0.84441622  0.19349399  0.97807595  1
  H  H16  1  0.87330526  0.36974598  0.01070371  1
  H  H17  1  0.11219246  0.16927685  0.87473992  1
  H  H18  1  0.13874264  0.33529860  0.88848514  1
  H  H19  1  0.03423967  0.27621328  0.75058431  1
  H  H20  1  0.43511665  0.78518452  0.63322626  1
  H  H21  1  0.58664844  0.67184419  0.56560351  1
  H  H22  1  0.55295941  0.81550623  0.42639024  1
  H  H23  1  0.18495796  0.84028153  0.36125005  1
  H  H24  1  0.37328636  0.57136196  0.51876159  1
  H  H25  1  0.31409111  0.70000347  0.41779543  1
  H  H26  1  0.09925445  0.79173200  0.84955274  1
  H  H27  1  0.20598319  0.79457980  0.01767880  1
  H  H28  1  0.11484608  0.64280524  0.97914427  1
  H  H29  1  0.94583883  0.89126418  0.08582577  1
  H  H30  1  0.88241764  0.74142651  0.08041240  1
  H  H31  1  0.14465537  0.80381234  0.29986711  1
  B  B32  1  0.40677973  0.04833263  0.99145501  1
  B  B33  1  0.00066775  0.43857478  0.40526589  1
  Ba  Ba34  1  0.86470694  0.81055644  0.51237405  1
  Ba  Ba35  1  0.47381770  0.57364363  0.07049122  1
  Cl  Cl36  1  0.54468070  0.18817421  0.97094362  1
  Cl  Cl37  1  0.24492850  0.08202068  0.16621527  1
  Cl  Cl38  1  0.73458323  0.02804698  0.32393797  1
  Cl  Cl39  1  0.97262119  0.26579544  0.48927075  1
  Cl  Cl40  1  0.34241307  0.03009776  0.77956047  1
  Cl  Cl41  1  0.94110126  0.99628282  0.75344818  1
  Cl  Cl42  1  0.51006174  0.88882186  0.03947115  1
  Cl  Cl43  1  0.81415844  0.50727514  0.35619235  1
  Cl  Cl44  1  0.14438865  0.44307417  0.19985092  1
  Cl  Cl45  1  0.06738669  0.54445966  0.56568209  1
  Cl  Cl46  1  0.34940063  0.46152409  0.78747623  1
  Cl  Cl47  1  0.76100397  0.61677243  0.85068220  1
