# generated using pymatgen
data_BSbH12C2(NCl3)2
_symmetry_space_group_name_H-M   'P 1'
_cell_length_a   7.89901077
_cell_length_b   10.78002666
_cell_length_c   8.07723159
_cell_angle_alpha   83.49470458
_cell_angle_beta   86.64144518
_cell_angle_gamma   81.07857938
_symmetry_Int_Tables_number   1
_chemical_formula_structural   BSbH12C2(NCl3)2
_chemical_formula_sum   'B2 Sb2 H24 C4 N4 Cl12'
_cell_volume   674.50340295
_cell_formula_units_Z   2
loop_
 _symmetry_equiv_pos_site_id
 _symmetry_equiv_pos_as_xyz
  1  'x, y, z'
loop_
 _atom_site_type_symbol
 _atom_site_label
 _atom_site_symmetry_multiplicity
 _atom_site_fract_x
 _atom_site_fract_y
 _atom_site_fract_z
 _atom_site_occupancy
  C  C0  1  0.50331084  0.23981970  0.44125194  1
  C  C1  1  0.91947654  0.23976045  0.03644649  1
  C  C2  1  0.49666066  0.78162231  0.52635772  1
  C  C3  1  0.09752946  0.74237292  0.95724524  1
  N  N4  1  0.58709535  0.25446531  0.59676170  1
  N  N5  1  0.05270396  0.28089603  0.91351531  1
  N  N6  1  0.34436730  0.78020800  0.42830465  1
  N  N7  1  0.93269041  0.73771127  0.05437343  1
  H  H8  1  0.56395018  0.29072770  0.33431612  1
  H  H9  1  0.51791783  0.13930893  0.42438866  1
  H  H10  1  0.36700452  0.27845169  0.45365513  1
  H  H11  1  0.71751332  0.22121444  0.59171306  1
  H  H12  1  0.56575792  0.34744116  0.62476928  1
  H  H13  1  0.53626035  0.20177950  0.69778772  1
  H  H14  1  0.97077653  0.22799071  0.16099370  1
  H  H15  1  0.88869494  0.15019420  0.00479860  1
  H  H16  1  0.80463328  0.31189798  0.02980497  1
  H  H17  1  0.15650557  0.21004589  0.90561428  1
  H  H18  1  0.09664302  0.35970208  0.94699386  1
  H  H19  1  0.00681229  0.30420917  0.79466586  1
  H  H20  1  0.46187625  0.77107478  0.66029433  1
  H  H21  1  0.60033743  0.70465231  0.50130325  1
  H  H22  1  0.54535509  0.87171593  0.49537241  1
  H  H23  1  0.06005378  0.80352178  0.62435107  1
  H  H24  1  0.30201249  0.69425595  0.45239194  1
  H  H25  1  0.37627344  0.79202588  0.30293889  1
  H  H26  1  0.08468722  0.70800194  0.83692441  1
  H  H27  1  0.12226669  0.84010577  0.93997576  1
  H  H28  1  0.20257324  0.68147862  0.02295302  1
  H  H29  1  0.83810502  0.80987420  0.01044066  1
  H  H30  1  0.88647245  0.65402931  0.04259212  1
  H  H31  1  0.94317765  0.74728765  0.17919846  1
  B  B32  1  0.42072734  0.01153440  0.98184083  1
  B  B33  1  0.97684514  0.46545027  0.38296767  1
  Sb  Sb34  1  0.09985935  0.94365255  0.51637631  1
  Sb  Sb35  1  0.51722385  0.49544922  0.01727926  1
  Cl  Cl36  1  0.53167217  0.14112374  0.02325553  1
  Cl  Cl37  1  0.22191419  0.01317430  0.11607087  1
  Cl  Cl38  1  0.86996036  0.93368671  0.33058983  1
  Cl  Cl39  1  0.00583132  0.30760227  0.51008730  1
  Cl  Cl40  1  0.35255018  0.04374947  0.75640471  1
  Cl  Cl41  1  0.87822013  0.03414843  0.73584116  1
  Cl  Cl42  1  0.54582724  0.85257855  0.01167375  1
  Cl  Cl43  1  0.74797701  0.50608934  0.32533196  1
  Cl  Cl44  1  0.12477457  0.45202388  0.19375312  1
  Cl  Cl45  1  0.03007542  0.59160930  0.49493219  1
  Cl  Cl46  1  0.35365037  0.48175194  0.76447565  1
  Cl  Cl47  1  0.77342009  0.54861036  0.84692241  1
