# generated using pymatgen
data_SnBH12C2(NCl3)2
_symmetry_space_group_name_H-M   'P 1'
_cell_length_a   8.06207950
_cell_length_b   9.88780220
_cell_length_c   8.65329772
_cell_angle_alpha   81.28777282
_cell_angle_beta   84.33169094
_cell_angle_gamma   82.87015725
_symmetry_Int_Tables_number   1
_chemical_formula_structural   SnBH12C2(NCl3)2
_chemical_formula_sum   'Sn2 B2 H24 C4 N4 Cl12'
_cell_volume   674.32411662
_cell_formula_units_Z   2
loop_
 _symmetry_equiv_pos_site_id
 _symmetry_equiv_pos_as_xyz
  1  'x, y, z'
loop_
 _atom_site_type_symbol
 _atom_site_label
 _atom_site_symmetry_multiplicity
 _atom_site_fract_x
 _atom_site_fract_y
 _atom_site_fract_z
 _atom_site_occupancy
  C  C0  1  0.46382934  0.24816023  0.44600367  1
  C  C1  1  0.92051966  0.23840370  0.05228068  1
  C  C2  1  0.50825195  0.77700121  0.56035177  1
  C  C3  1  0.08826185  0.73952011  0.96748483  1
  N  N4  1  0.62208073  0.19334545  0.51876787  1
  N  N5  1  0.03579111  0.27037297  0.91027160  1
  N  N6  1  0.37286970  0.79484070  0.45428680  1
  N  N7  1  0.93089933  0.80457753  0.04208659  1
  H  H8  1  0.49445415  0.30313686  0.32921599  1
  H  H9  1  0.39276361  0.16273032  0.43575621  1
  H  H10  1  0.38913773  0.31868059  0.51872979  1
  H  H11  1  0.69544825  0.11937422  0.45734763  1
  H  H12  1  0.69952884  0.26884308  0.52266135  1
  H  H13  1  0.60254828  0.14493478  0.63298773  1
  H  H14  1  0.99357914  0.20086529  0.15258191  1
  H  H15  1  0.84585298  0.15950899  0.03037301  1
  H  H16  1  0.84233464  0.33313052  0.07423723  1
  H  H17  1  0.11509777  0.18378586  0.88641102  1
  H  H18  1  0.10978486  0.34628213  0.92092134  1
  H  H19  1  0.96994784  0.30358075  0.81221889  1
  H  H20  1  0.45437717  0.76483579  0.68268870  1
  H  H21  1  0.60030457  0.68726656  0.54449038  1
  H  H22  1  0.57628514  0.86827703  0.54060722  1
  H  H23  1  0.05862954  0.79952484  0.63614944  1
  H  H24  1  0.32176858  0.70435839  0.45869636  1
  H  H25  1  0.41912493  0.82092456  0.34046558  1
  H  H26  1  0.05627372  0.68241085  0.87765583  1
  H  H27  1  0.16372596  0.82073511  0.91173042  1
  H  H28  1  0.15592014  0.67106524  0.05747629  1
  H  H29  1  0.87463859  0.88138656  0.95878570  1
  H  H30  1  0.84846536  0.73300066  0.08342627  1
  H  H31  1  0.95018773  0.85177738  0.13739240  1
  B  B32  1  0.41224154  0.99511269  0.01020983  1
  B  B33  1  0.98625842  0.47511631  0.35619304  1
  Sn  Sn34  1  0.10927916  0.96389090  0.53857968  1
  Sn  Sn35  1  0.51731079  0.48069667  0.97666383  1
  Cl  Cl36  1  0.53535615  0.11889022  0.07574554  1
  Cl  Cl37  1  0.21433884  0.98843562  0.13469562  1
  Cl  Cl38  1  0.85703502  0.96838956  0.35654577  1
  Cl  Cl39  1  0.96840686  0.32747333  0.51505532  1
  Cl  Cl40  1  0.36372432  0.05151132  0.80164613  1
  Cl  Cl41  1  0.85735942  0.04530448  0.77521009  1
  Cl  Cl42  1  0.52998271  0.81825585  0.02775156  1
  Cl  Cl43  1  0.77603955  0.52060445  0.26986938  1
  Cl  Cl44  1  0.15320551  0.41875910  0.20405355  1
  Cl  Cl45  1  0.04067721  0.62392452  0.43099479  1
  Cl  Cl46  1  0.33996491  0.46922823  0.76473653  1
  Cl  Cl47  1  0.76616013  0.53784675  0.80780543  1
