# generated using pymatgen
data_InBH12C2(NCl3)2
_symmetry_space_group_name_H-M   'P 1'
_cell_length_a   8.46653171
_cell_length_b   9.04748331
_cell_length_c   8.72762791
_cell_angle_alpha   87.81122329
_cell_angle_beta   89.98034379
_cell_angle_gamma   89.94759311
_symmetry_Int_Tables_number   1
_chemical_formula_structural   InBH12C2(NCl3)2
_chemical_formula_sum   'In2 B2 H24 C4 N4 Cl12'
_cell_volume   668.05524838
_cell_formula_units_Z   2
loop_
 _symmetry_equiv_pos_site_id
 _symmetry_equiv_pos_as_xyz
  1  'x, y, z'
loop_
 _atom_site_type_symbol
 _atom_site_label
 _atom_site_symmetry_multiplicity
 _atom_site_fract_x
 _atom_site_fract_y
 _atom_site_fract_z
 _atom_site_occupancy
  C  C0  1  0.51324075  0.28003215  0.46192112  1
  C  C1  1  0.99947258  0.20787145  0.03589561  1
  C  C2  1  0.57700602  0.73969605  0.55917687  1
  C  C3  1  0.06874842  0.76030793  0.93651274  1
  N  N4  1  0.54389719  0.25348455  0.62792163  1
  N  N5  1  0.03654535  0.25429319  0.87526067  1
  N  N6  1  0.40171908  0.73834523  0.56604620  1
  N  N7  1  0.89381838  0.77065503  0.94223248  1
  H  H8  1  0.62477380  0.30594755  0.40334516  1
  H  H9  1  0.46065466  0.18010588  0.41663507  1
  H  H10  1  0.42962258  0.37191700  0.44668678  1
  H  H11  1  0.62636125  0.16792904  0.64897212  1
  H  H12  1  0.58904997  0.34571130  0.68062352  1
  H  H13  1  0.43993355  0.22313348  0.68328237  1
  H  H14  1  0.10629250  0.16330260  0.09131689  1
  H  H15  1  0.90609546  0.12409515  0.03559412  1
  H  H16  1  0.95694107  0.30422770  0.09618599  1
  H  H17  1  0.07147615  0.16627402  0.80975688  1
  H  H18  1  0.12788057  0.33262548  0.86590802  1
  H  H19  1  0.93738105  0.30348057  0.82492173  1
  H  H20  1  0.62340284  0.75012455  0.67490286  1
  H  H21  1  0.61926381  0.63667202  0.51185456  1
  H  H22  1  0.61607551  0.83374600  0.48631401  1
  H  H23  1  0.35602605  0.83775569  0.60642092  1
  H  H24  1  0.36031127  0.65111654  0.63822003  1
  H  H25  1  0.35351879  0.72733425  0.45847992  1
  H  H26  1  0.10300699  0.72454127  0.82307436  1
  H  H27  1  0.12050466  0.86857413  0.95647909  1
  H  H28  1  0.10957482  0.67914479  0.02396246  1
  H  H29  1  0.85244879  0.85464510  0.86576440  1
  H  H30  1  0.84144674  0.67058569  0.91172971  1
  H  H31  1  0.85342677  0.79256524  0.05059521  1
  B  B32  1  0.47668502  0.95561200  0.09393279  1
  B  B33  1  0.98406035  0.53619594  0.40342903  1
  In  In34  1  0.99941380  0.03677715  0.43236578  1
  In  In35  1  0.49493828  0.47468650  0.06599714  1
  Cl  Cl36  1  0.41880597  0.13383114  0.99771120  1
  Cl  Cl37  1  0.31805049  0.89536656  0.23047452  1
  Cl  Cl38  1  0.66589536  0.97702311  0.19867253  1
  Cl  Cl39  1  0.92420159  0.36801533  0.51735926  1
  Cl  Cl40  1  0.23800019  0.04033404  0.64865239  1
  Cl  Cl41  1  0.80812533  0.02488015  0.70457236  1
  Cl  Cl42  1  0.49906951  0.81556446  0.94491544  1
  Cl  Cl43  1  0.82460223  0.58551866  0.26410916  1
  Cl  Cl44  1  0.17055080  0.50088150  0.29943043  1
  Cl  Cl45  1  0.01136197  0.68933849  0.53714607  1
  Cl  Cl46  1  0.30799117  0.47579291  0.79427143  1
  Cl  Cl47  1  0.73835426  0.47001976  0.85126356  1
