# generated using pymatgen
data_CdBH12C2(NCl3)2
_symmetry_space_group_name_H-M   'P 1'
_cell_length_a   7.73941731
_cell_length_b   10.31602902
_cell_length_c   8.14885065
_cell_angle_alpha   90.98747545
_cell_angle_beta   81.34436837
_cell_angle_gamma   88.32566186
_symmetry_Int_Tables_number   1
_chemical_formula_structural   CdBH12C2(NCl3)2
_chemical_formula_sum   'Cd2 B2 H24 C4 N4 Cl12'
_cell_volume   642.76609316
_cell_formula_units_Z   2
loop_
 _symmetry_equiv_pos_site_id
 _symmetry_equiv_pos_as_xyz
  1  'x, y, z'
loop_
 _atom_site_type_symbol
 _atom_site_label
 _atom_site_symmetry_multiplicity
 _atom_site_fract_x
 _atom_site_fract_y
 _atom_site_fract_z
 _atom_site_occupancy
  C  C0  1  0.45665095  0.26064528  0.42785163  1
  C  C1  1  0.94227836  0.20993290  0.02722713  1
  C  C2  1  0.57330940  0.74619616  0.58859910  1
  C  C3  1  0.06621370  0.79037103  0.92640971  1
  N  N4  1  0.58382484  0.23875427  0.54593337  1
  N  N5  1  0.08910442  0.24936050  0.90042647  1
  N  N6  1  0.40414068  0.76197358  0.52573727  1
  N  N7  1  0.93329946  0.76123332  0.07112076  1
  H  H8  1  0.52695629  0.25864277  0.30088094  1
  H  H9  1  0.36278167  0.18304102  0.44402860  1
  H  H10  1  0.38990739  0.35477012  0.45823056  1
  H  H11  1  0.64735575  0.14829257  0.52604702  1
  H  H12  1  0.68120202  0.30628911  0.53114988  1
  H  H13  1  0.52526026  0.24163289  0.67005545  1
  H  H14  1  0.99498265  0.17780934  0.13777033  1
  H  H15  1  0.87341070  0.13120755  0.97584787  1
  H  H16  1  0.85190703  0.29308659  0.05947869  1
  H  H17  1  0.15552400  0.16875001  0.83443503  1
  H  H18  1  0.18207505  0.29839856  0.95416745  1
  H  H19  1  0.04623814  0.31123555  0.81558775  1
  H  H20  1  0.54824749  0.75201993  0.72412627  1
  H  H21  1  0.63508355  0.65285615  0.54524045  1
  H  H22  1  0.65839545  0.82500367  0.54365215  1
  H  H23  1  0.34464596  0.85249264  0.56759954  1
  H  H24  1  0.32360887  0.68741847  0.57092654  1
  H  H25  1  0.41967352  0.75713667  0.39724867  1
  H  H26  1  -0.00015188  0.80022327  0.81747903  1
  H  H27  1  0.13137120  0.87962569  0.95032090  1
  H  H28  1  0.16034746  0.70833733  0.90618210  1
  H  H29  1  0.84322480  0.83735075  0.10188615  1
  H  H30  1  0.86618379  0.67982478  0.04010706  1
  H  H31  1  0.98783888  0.74077598  0.17673046  1
  B  B32  1  0.50232855  0.92121612  0.10536284  1
  B  B33  1  0.97578070  0.49783729  0.34998548  1
  Cd  Cd34  1  0.95233185  0.01138263  0.53311925  1
  Cd  Cd35  1  0.52879252  0.50138844  0.89916400  1
  Cl  Cl36  1  0.49929427  0.27209170  0.96526952  1
  Cl  Cl37  1  0.29034056  0.00707070  0.15400908  1
  Cl  Cl38  1  0.64005907  0.96222389  0.26841240  1
  Cl  Cl39  1  0.00214797  0.35766946  0.48490842  1
  Cl  Cl40  1  0.28233782  0.02635715  0.68479590  1
  Cl  Cl41  1  0.62955996  0.95084372  0.90312893  1
  Cl  Cl42  1  0.45766297  0.73642143  0.11956698  1
  Cl  Cl43  1  0.74940380  0.49627272  0.29576665  1
  Cl  Cl44  1  0.14067442  0.48202781  0.15923327  1
  Cl  Cl45  1  0.00911045  0.65796932  0.44940825  1
  Cl  Cl46  1  0.30052332  0.51285702  0.72237209  1
  Cl  Cl47  1  0.83478368  0.54176044  0.84330919  1
