# generated using pymatgen
data_AgBH12C2(NCl3)2
_symmetry_space_group_name_H-M   'P 1'
_cell_length_a   7.40518225
_cell_length_b   9.35631439
_cell_length_c   8.90608674
_cell_angle_alpha   96.08909091
_cell_angle_beta   94.75955934
_cell_angle_gamma   89.32218351
_symmetry_Int_Tables_number   1
_chemical_formula_structural   AgBH12C2(NCl3)2
_chemical_formula_sum   'Ag2 B2 H24 C4 N4 Cl12'
_cell_volume   611.46008828
_cell_formula_units_Z   2
loop_
 _symmetry_equiv_pos_site_id
 _symmetry_equiv_pos_as_xyz
  1  'x, y, z'
loop_
 _atom_site_type_symbol
 _atom_site_label
 _atom_site_symmetry_multiplicity
 _atom_site_fract_x
 _atom_site_fract_y
 _atom_site_fract_z
 _atom_site_occupancy
  C  C0  1  0.48388842  0.28177446  0.44068302  1
  C  C1  1  0.97437127  0.18648029  0.03566359  1
  C  C2  1  0.53526403  0.68062130  0.60457430  1
  C  C3  1  0.03363926  0.82017067  0.89817635  1
  N  N4  1  0.50995214  0.29781506  0.60804390  1
  N  N5  1  0.04090925  0.22562078  0.89362759  1
  N  N6  1  0.46133195  0.78083469  0.49655297  1
  N  N7  1  0.96290436  0.74225353  0.01761209  1
  H  H8  1  0.61082155  0.24362929  0.39525137  1
  H  H9  1  0.37610067  0.20358058  0.40503190  1
  H  H10  1  0.44616177  0.38503276  0.39973480  1
  H  H11  1  0.55080404  0.19891132  0.64711573  1
  H  H12  1  0.61264456  0.37011217  0.65116573  1
  H  H13  1  0.39509426  0.33320861  0.66065112  1
  H  H14  1  0.08601565  0.14241764  0.10508498  1
  H  H15  1  0.86454979  0.10858979  0.00749101  1
  H  H16  1  0.92246899  0.28335153  0.09810561  1
  H  H17  1  0.08885656  0.13920693  0.82418400  1
  H  H18  1  0.14540193  0.30202862  0.91175662  1
  H  H19  1  0.93884894  0.27695184  0.83172975  1
  H  H20  1  0.42307377  0.63473254  0.65627475  1
  H  H21  1  0.61344158  0.59699613  0.54368980  1
  H  H22  1  0.62450858  0.74144528  0.69162281  1
  H  H23  1  0.39086220  0.86755006  0.55165734  1
  H  H24  1  0.37151689  0.73089367  0.41323561  1
  H  H25  1  0.56275765  0.82588949  0.44420899  1
  H  H26  1  0.91878671  0.85796887  0.82713493  1
  H  H27  1  0.11583791  0.91065053  0.95142054  1
  H  H28  1  0.11785714  0.74533699  0.83156583  1
  H  H29  1  0.87502575  0.80428765  0.08214115  1
  H  H30  1  0.89350893  0.65060377  0.96441368  1
  H  H31  1  0.06545785  0.70552443  0.09014172  1
  B  B32  1  0.49010482  0.96777123  0.12283510  1
  B  B33  1  0.99628857  0.51720341  0.37177273  1
  Ag  Ag34  1  0.92847193  0.00344104  0.51039033  1
  Ag  Ag35  1  0.58578919  0.47253810  0.01478286  1
  Cl  Cl36  1  0.47881484  0.14305174  0.04806074  1
  Cl  Cl37  1  0.29582966  0.94834022  0.23852551  1
  Cl  Cl38  1  0.71660736  0.95608351  0.25171649  1
  Cl  Cl39  1  0.00021736  0.34354622  0.44931890  1
  Cl  Cl40  1  0.23298611  0.03318932  0.63776501  1
  Cl  Cl41  1  0.70292059  0.02617773  0.70176280  1
  Cl  Cl42  1  0.49917591  0.81711635  0.97581136  1
  Cl  Cl43  1  0.75803058  0.54864871  0.27262474  1
  Cl  Cl44  1  0.17056820  0.52107908  0.23289481  1
  Cl  Cl45  1  0.03215788  0.66903034  0.52009377  1
  Cl  Cl46  1  0.29378520  0.47577112  0.86350712  1
  Cl  Cl47  1  0.80561116  0.48261888  0.80869076  1
