# generated using pymatgen
data_BH12RhC2(NCl3)2
_symmetry_space_group_name_H-M   'P 1'
_cell_length_a   7.40717134
_cell_length_b   10.19239164
_cell_length_c   8.22731317
_cell_angle_alpha   98.31305252
_cell_angle_beta   83.42581870
_cell_angle_gamma   92.21430629
_symmetry_Int_Tables_number   1
_chemical_formula_structural   BH12RhC2(NCl3)2
_chemical_formula_sum   'B2 H24 Rh2 C4 N4 Cl12'
_cell_volume   610.41389622
_cell_formula_units_Z   2
loop_
 _symmetry_equiv_pos_site_id
 _symmetry_equiv_pos_as_xyz
  1  'x, y, z'
loop_
 _atom_site_type_symbol
 _atom_site_label
 _atom_site_symmetry_multiplicity
 _atom_site_fract_x
 _atom_site_fract_y
 _atom_site_fract_z
 _atom_site_occupancy
  C  C0  1  0.56193014  0.27207058  0.44498014  1
  C  C1  1  0.95148783  0.24618937  0.03634034  1
  C  C2  1  0.51614930  0.71582637  0.62130293  1
  C  C3  1  0.99143151  0.75355472  0.90396937  1
  N  N4  1  0.56795973  0.22423088  0.60601475  1
  N  N5  1  0.99953029  0.25081411  0.85744627  1
  N  N6  1  0.50386444  0.78120182  0.47318432  1
  N  N7  1  0.93142766  0.74301945  0.07985821  1
  H  H8  1  0.70052701  0.28423376  0.38685138  1
  H  H9  1  0.48773304  0.19912337  0.36570616  1
  H  H10  1  0.49358320  0.36711561  0.46677478  1
  H  H11  1  0.65466012  0.14455416  0.59860722  1
  H  H12  1  0.61097531  0.30223363  0.69151672  1
  H  H13  1  0.44061798  0.19064550  0.65085482  1
  H  H14  1  0.07665375  0.24670700  0.09502888  1
  H  H15  1  0.87058708  0.15625087  0.05457048  1
  H  H16  1  0.87258878  0.33406780  0.08928118  1
  H  H17  1  0.03202150  0.15896438  0.79050861  1
  H  H18  1  0.11055174  0.31749637  0.83777392  1
  H  H19  1  0.89294872  0.29038286  0.81021142  1
  H  H20  1  0.39122361  0.65827137  0.64760025  1
  H  H21  1  0.63130232  0.64910006  0.59749178  1
  H  H22  1  0.53603639  0.79240203  0.72553258  1
  H  H23  1  0.38795193  0.83861597  0.48994617  1
  H  H24  1  0.50731879  0.71031901  0.36844847  1
  H  H25  1  0.61275840  0.84702968  0.45251897  1
  H  H26  1  0.87118739  0.76081579  0.84052040  1
  H  H27  1  0.07691415  0.84294805  0.89523620  1
  H  H28  1  0.06717120  0.66484196  0.84891924  1
  H  H29  1  0.86423809  0.82843103  0.14177800  1
  H  H30  1  0.84342353  0.66154152  0.09568589  1
  H  H31  1  0.04034065  0.73241351  0.14407971  1
  B  B32  1  0.37681021  0.00171745  0.10324880  1
  B  B33  1  0.10373559  0.51778099  0.38135074  1
  Rh  Rh34  1  0.00851903  0.99771933  0.46337373  1
  Rh  Rh35  1  0.47958085  0.48595674  0.01609252  1
  Cl  Cl36  1  0.48851041  0.12248771  0.99772520  1
  Cl  Cl37  1  0.20111391  0.06582771  0.25441862  1
  Cl  Cl38  1  0.76775366  0.98982330  0.29705441  1
  Cl  Cl39  1  0.08429922  0.36154277  0.44100772  1
  Cl  Cl40  1  0.23855398  0.00707586  0.64101675  1
  Cl  Cl41  1  0.79581337  0.98361935  0.68894146  1
  Cl  Cl42  1  0.42676543  0.83375590  0.06330630  1
  Cl  Cl43  1  0.66527530  0.53026309  0.23245809  1
  Cl  Cl44  1  0.22539711  0.55204208  0.19164445  1
  Cl  Cl45  1  0.00632928  0.65731240  0.50108549  1
  Cl  Cl46  1  0.29996177  0.45512093  0.79633561  1
  Cl  Cl47  1  0.73450902  0.47262007  0.82269718  1
