# generated using pymatgen
data_AlBH12C2(I3N)2
_symmetry_space_group_name_H-M   'P 1'
_cell_length_a   8.25491718
_cell_length_b   10.81338172
_cell_length_c   9.91920859
_cell_angle_alpha   90.65367732
_cell_angle_beta   90.27470892
_cell_angle_gamma   86.08027525
_symmetry_Int_Tables_number   1
_chemical_formula_structural   AlBH12C2(I3N)2
_chemical_formula_sum   'Al2 B2 H24 C4 I12 N4'
_cell_volume   883.28815469
_cell_formula_units_Z   2
loop_
 _symmetry_equiv_pos_site_id
 _symmetry_equiv_pos_as_xyz
  1  'x, y, z'
loop_
 _atom_site_type_symbol
 _atom_site_label
 _atom_site_symmetry_multiplicity
 _atom_site_fract_x
 _atom_site_fract_y
 _atom_site_fract_z
 _atom_site_occupancy
  C  C0  1  0.44940411  0.19834918  0.47592789  1
  C  C1  1  0.98286629  0.23288877  0.99875950  1
  C  C2  1  0.40987883  0.78584590  0.44624372  1
  C  C3  1  0.10216306  0.74391295  0.02957619  1
  N  N4  1  0.52431767  0.23263030  0.60651011  1
  N  N5  1  0.11465789  0.28885372  0.92397232  1
  N  N6  1  0.36243162  0.72273894  0.32062641  1
  N  N7  1  0.07537288  0.76556615  0.17597392  1
  H  H8  1  0.49287274  0.25753902  0.39685471  1
  H  H9  1  0.48570746  0.10146454  0.45191076  1
  H  H10  1  0.31710185  0.21197670  0.48472614  1
  H  H11  1  0.65017683  0.23561066  0.59976320  1
  H  H12  1  0.47683148  0.32015241  0.64076361  1
  H  H13  1  0.50195647  0.16962324  0.68118447  1
  H  H14  1  0.03199543  0.19321626  0.09246186  1
  H  H15  1  0.93567604  0.15989868  0.93536117  1
  H  H16  1  0.88761977  0.30568493  0.02003071  1
  H  H17  1  0.18946054  0.21978483  0.87703615  1
  H  H18  1  0.18570636  0.34043846  0.98635758  1
  H  H19  1  0.06727314  0.34789153  0.84953658  1
  H  H20  1  0.31756867  0.77554602  0.52380415  1
  H  H21  1  0.52818006  0.74906728  0.48588109  1
  H  H22  1  0.41663148  0.88501511  0.42690768  1
  H  H23  1  0.14673241  0.98032139  0.48792068  1
  H  H24  1  0.36347294  0.62923461  0.33782297  1
  H  H25  1  0.44940570  0.73246751  0.24821616  1
  H  H26  1  0.98748992  0.75896035  0.97404059  1
  H  H27  1  0.18927523  0.80792926  0.99394607  1
  H  H28  1  0.15173449  0.64824974  0.01328522  1
  H  H29  1  0.02211133  0.85379973  0.19489854  1
  H  H30  1  0.99644252  0.70492799  0.21360188  1
  H  H31  1  0.18946543  0.75408022  0.23708471  1
  B  B32  1  0.43340587  0.00979907  0.98803282  1
  B  B33  1  0.93088120  0.49782594  0.34591135  1
  Al  Al34  1  0.96413167  0.03387099  0.50589315  1
  Al  Al35  1  0.48279127  0.51636996  0.95931164  1
  I  I36  1  0.57074935  0.18250992  0.96417125  1
  I  I37  1  0.29097185  0.03601298  0.17962087  1
  I  I38  1  0.80528908  0.02822935  0.28336937  1
  I  I39  1  0.95908841  0.26518837  0.58287877  1
  I  I40  1  0.27871174  0.99618543  0.79831821  1
  I  I41  1  0.80014381  0.93136132  0.68574742  1
  I  I42  1  0.59088217  0.83163819  0.00157797  1
  I  I43  1  0.70818714  0.44188534  0.26212398  1
  I  I44  1  0.16088376  0.43389124  0.25657627  1
  I  I45  1  0.91983927  0.64579033  0.48914974  1
  I  I46  1  0.31492927  0.51183386  0.71382395  1
  I  I47  1  0.78715721  0.52401958  0.85280311  1
