# generated using pymatgen
data_ZrBH12C2(NCl3)2
_symmetry_space_group_name_H-M   'P 1'
_cell_length_a   6.69736751
_cell_length_b   12.10777143
_cell_length_c   8.56635548
_cell_angle_alpha   85.94709592
_cell_angle_beta   83.93760051
_cell_angle_gamma   86.23443971
_symmetry_Int_Tables_number   1
_chemical_formula_structural   ZrBH12C2(NCl3)2
_chemical_formula_sum   'Zr2 B2 H24 C4 N4 Cl12'
_cell_volume   687.84767575
_cell_formula_units_Z   2
loop_
 _symmetry_equiv_pos_site_id
 _symmetry_equiv_pos_as_xyz
  1  'x, y, z'
loop_
 _atom_site_type_symbol
 _atom_site_label
 _atom_site_symmetry_multiplicity
 _atom_site_fract_x
 _atom_site_fract_y
 _atom_site_fract_z
 _atom_site_occupancy
  C  C0  1  0.38351050  0.22190289  0.43098359  1
  C  C1  1  0.05428850  0.23807669  0.03351446  1
  C  C2  1  0.47632872  0.74739034  0.42516318  1
  C  C3  1  0.15054246  0.77514178  0.97540110  1
  N  N4  1  0.38782176  0.26002229  0.59231390  1
  N  N5  1  0.95253785  0.31196500  0.92112319  1
  N  N6  1  0.39333594  0.67288727  0.32102241  1
  N  N7  1  0.09888313  0.76813904  0.14753678  1
  H  H8  1  0.49674095  0.26455821  0.35138280  1
  H  H9  1  0.41847445  0.13216871  0.43579406  1
  H  H10  1  0.23342726  0.24160554  0.39342379  1
  H  H11  1  0.53597036  0.25272142  0.62065082  1
  H  H12  1  0.33812848  0.34250971  0.60136423  1
  H  H13  1  0.30100914  0.21070915  0.67371630  1
  H  H14  1  0.21479631  0.22059006  0.99497808  1
  H  H15  1  0.98188850  0.15893059  0.05676624  1
  H  H16  1  0.04637616  0.27541850  0.14816836  1
  H  H17  1  0.46839654  0.38395283  0.89063706  1
  H  H18  1  0.52802784  0.33271308  0.91868963  1
  H  H19  1  0.92905519  0.27569032  0.82089233  1
  H  H20  1  0.35155687  0.79604957  0.48604877  1
  H  H21  1  0.56117472  0.69867815  0.51123775  1
  H  H22  1  0.57440167  0.80457831  0.35411246  1
  H  H23  1  0.15201628  0.94966061  0.47765613  1
  H  H24  1  0.31817718  0.61150056  0.38817995  1
  H  H25  1  0.50393156  0.63160772  0.24976794  1
  H  H26  1  0.01760889  0.78283155  0.90913239  1
  H  H27  1  0.23913817  0.84744907  0.94184205  1
  H  H28  1  0.24290210  0.70078994  0.94145177  1
  H  H29  1  0.03408097  0.84226259  0.18427383  1
  H  H30  1  0.99421908  0.71017471  0.17760620  1
  H  H31  1  0.28294154  0.71691404  0.24662282  1
  B  B32  1  0.53180955  0.99939187  0.05786984  1
  B  B33  1  0.04198259  0.52308053  0.72713154  1
  Zr  Zr34  1  0.92815603  0.02153462  0.57385865  1
  Zr  Zr35  1  0.90213668  0.46667553  0.99991161  1
  Cl  Cl36  1  0.62858002  0.11054872  0.93760027  1
  Cl  Cl37  1  0.31358601  0.01969860  0.18268528  1
  Cl  Cl38  1  0.82764991  0.02932083  0.31073853  1
  Cl  Cl39  1  0.86208944  0.22719433  0.56743301  1
  Cl  Cl40  1  0.17327729  0.04170285  0.76170725  1
  Cl  Cl41  1  0.71878020  0.87858530  0.66927688  1
  Cl  Cl42  1  0.64573522  0.86741042  0.04828972  1
  Cl  Cl43  1  0.68137308  0.43631485  0.25510771  1
  Cl  Cl44  1  0.19462267  0.49904536  0.12444784  1
  Cl  Cl45  1  0.91055539  0.55417086  0.55782182  1
  Cl  Cl46  1  0.31380854  0.52496255  0.67088513  1
  Cl  Cl47  1  0.66419203  0.62085080  0.93407713  1
