# generated using pymatgen
data_YBH12C2(NCl3)2
_symmetry_space_group_name_H-M   'P 1'
_cell_length_a   7.65619079
_cell_length_b   10.46639565
_cell_length_c   8.68529706
_cell_angle_alpha   91.12669298
_cell_angle_beta   98.45164683
_cell_angle_gamma   86.31948263
_symmetry_Int_Tables_number   1
_chemical_formula_structural   YBH12C2(NCl3)2
_chemical_formula_sum   'Y2 B2 H24 C4 N4 Cl12'
_cell_volume   686.96162087
_cell_formula_units_Z   2
loop_
 _symmetry_equiv_pos_site_id
 _symmetry_equiv_pos_as_xyz
  1  'x, y, z'
loop_
 _atom_site_type_symbol
 _atom_site_label
 _atom_site_symmetry_multiplicity
 _atom_site_fract_x
 _atom_site_fract_y
 _atom_site_fract_z
 _atom_site_occupancy
  C  C0  1  0.47085321  0.19426696  0.47083883  1
  C  C1  1  0.96305110  0.21987194  0.97806960  1
  C  C2  1  0.47072899  0.77298975  0.42294138  1
  C  C3  1  0.03682216  0.81192345  0.01189332  1
  N  N4  1  0.57360348  0.25152810  0.61149036  1
  N  N5  1  0.13845752  0.26621624  0.96172164  1
  N  N6  1  0.36617104  0.69513504  0.30432948  1
  N  N7  1  0.04175268  0.77877328  0.17768986  1
  H  H8  1  0.49263388  0.24605198  0.36787696  1
  H  H9  1  0.51658366  0.09379302  0.46051252  1
  H  H10  1  0.33033044  0.20374624  0.48368101  1
  H  H11  1  0.70412341  0.26167638  0.59693514  1
  H  H12  1  0.51611407  0.34289217  0.63597507  1
  H  H13  1  0.57596096  0.19387846  0.70781006  1
  H  H14  1  0.92908443  0.24573123  0.09303052  1
  H  H15  1  0.96103449  0.11547318  0.96522011  1
  H  H16  1  0.86067871  0.26462662  0.89085042  1
  H  H17  1  0.21472050  0.26840256  0.06885332  1
  H  H18  1  0.28128855  0.51946692  0.02211759  1
  H  H19  1  0.20431628  0.19889398  0.90011932  1
  H  H20  1  0.38989103  0.80007190  0.51407947  1
  H  H21  1  0.59325757  0.72173234  0.47664091  1
  H  H22  1  0.50458299  0.86006606  0.36897788  1
  H  H23  1  0.11254275  0.85253692  0.49786961  1
  H  H24  1  0.34572871  0.60955228  0.35220211  1
  H  H25  1  0.43258296  0.67303669  0.21197108  1
  H  H26  1  0.91674522  0.78094634  0.94117750  1
  H  H27  1  0.04062918  0.91544148  0.00276662  1
  H  H28  1  0.15435071  0.76600716  0.96990810  1
  H  H29  1  0.99375373  0.85437656  0.24129579  1
  H  H30  1  0.96444296  0.70380731  0.18721443  1
  H  H31  1  0.18485425  0.74773902  0.23755846  1
  B  B32  1  0.44627900  0.00332415  0.00780636  1
  B  B33  1  0.90097322  0.48154501  0.34361858  1
  Y  Y34  1  0.99654536  0.01034704  0.57542853  1
  Y  Y35  1  0.12952660  0.46411931  0.82629073  1
  Cl  Cl36  1  0.55749154  0.15054138  0.98024739  1
  Cl  Cl37  1  0.30774797  0.02748513  0.16173497  1
  Cl  Cl38  1  0.85913578  0.05838461  0.30182581  1
  Cl  Cl39  1  0.01800966  0.26919875  0.60682816  1
  Cl  Cl40  1  0.28972826  0.98029854  0.79875197  1
  Cl  Cl41  1  0.73826374  0.95052018  0.69203215  1
  Cl  Cl42  1  0.58336695  0.85679767  0.03106372  1
  Cl  Cl43  1  0.70058791  0.42523748  0.25640960  1
  Cl  Cl44  1  0.09849183  0.43372439  0.27624850  1
  Cl  Cl45  1  0.90373429  0.60208869  0.48602336  1
  Cl  Cl46  1  0.36419578  0.51026112  0.65308842  1
  Cl  Cl47  1  0.82427421  0.54555326  0.86927988  1
