# generated using pymatgen
data_SrBH12C2(NCl3)2
_symmetry_space_group_name_H-M   'P 1'
_cell_length_a   8.33366459
_cell_length_b   10.32970250
_cell_length_c   7.88734117
_cell_angle_alpha   87.40946784
_cell_angle_beta   90.15408933
_cell_angle_gamma   95.73770499
_symmetry_Int_Tables_number   1
_chemical_formula_structural   SrBH12C2(NCl3)2
_chemical_formula_sum   'Sr2 B2 H24 C4 N4 Cl12'
_cell_volume   674.88283458
_cell_formula_units_Z   2
loop_
 _symmetry_equiv_pos_site_id
 _symmetry_equiv_pos_as_xyz
  1  'x, y, z'
loop_
 _atom_site_type_symbol
 _atom_site_label
 _atom_site_symmetry_multiplicity
 _atom_site_fract_x
 _atom_site_fract_y
 _atom_site_fract_z
 _atom_site_occupancy
  C  C0  1  0.45620784  0.27011277  0.45335972  1
  C  C1  1  0.92943058  0.21810911  0.99388859  1
  C  C2  1  0.55066778  0.78674752  0.60000833  1
  C  C3  1  0.05224645  0.71439863  0.92631357  1
  N  N4  1  0.59426347  0.24048495  0.56200181  1
  N  N5  1  0.96529332  0.32162005  0.89907224  1
  N  N6  1  0.42493431  0.71244052  0.49920911  1
  N  N7  1  0.93440552  0.76467396  0.04146695  1
  H  H8  1  0.50586055  0.30843720  0.33089606  1
  H  H9  1  0.38043596  0.17955147  0.43204301  1
  H  H10  1  0.38727567  0.34072331  0.51304350  1
  H  H11  1  0.66570676  0.18002088  0.49557100  1
  H  H12  1  0.66187909  0.32595464  0.59653084  1
  H  H13  1  0.55612002  0.19094388  0.67378771  1
  H  H14  1  0.02064933  0.15318380  0.02668919  1
  H  H15  1  0.80770505  0.19246118  0.04173161  1
  H  H16  1  0.98319924  0.27156005  0.21946281  1
  H  H17  1  0.22916885  0.20480857  0.91453559  1
  H  H18  1  0.08118358  0.35039980  0.85614102  1
  H  H19  1  0.87941535  0.38410862  0.86143750  1
  H  H20  1  0.50698715  0.79531560  0.72942762  1
  H  H21  1  0.65820663  0.73378413  0.60408307  1
  H  H22  1  0.57992625  0.88317410  0.53822572  1
  H  H23  1  0.31800726  0.75690775  0.48536931  1
  H  H24  1  0.38992460  0.62194096  0.55921096  1
  H  H25  1  0.46700546  0.70121374  0.37586765  1
  H  H26  1  0.00478437  0.71451376  0.79664113  1
  H  H27  1  0.16590786  0.77728481  0.93141330  1
  H  H28  1  0.07276938  0.61521668  0.96835733  1
  H  H29  1  0.90435770  0.85556768  0.99463866  1
  H  H30  1  0.82528495  0.70677084  0.05005986  1
  H  H31  1  0.97903034  0.77204284  0.16518646  1
  B  B32  1  0.30805032  0.11612019  0.94514832  1
  B  B33  1  0.99656780  0.36678665  0.30218129  1
  Sr  Sr34  1  0.00272082  0.01826233  0.51568024  1
  Sr  Sr35  1  0.49430608  0.47231599  0.00672887  1
  Cl  Cl36  1  0.52095926  0.18844813  0.98300058  1
  Cl  Cl37  1  0.23663783  0.01352268  0.13369991  1
  Cl  Cl38  1  0.73235914  0.04972148  0.32495920  1
  Cl  Cl39  1  0.00635210  0.30668225  0.52705889  1
  Cl  Cl40  1  0.30802191  0.01531072  0.75072741  1
  Cl  Cl41  1  0.82633221  0.99758178  0.81043043  1
  Cl  Cl42  1  0.55418090  0.71550818  0.12606289  1
  Cl  Cl43  1  0.81991993  0.46239929  0.26677480  1
  Cl  Cl44  1  0.18814813  0.46982847  0.24168452  1
  Cl  Cl45  1  0.06430380  0.77345730  0.43041280  1
  Cl  Cl46  1  0.27836616  0.48704735  0.74990008  1
  Cl  Cl47  1  0.72455669  0.50261166  0.75017510  1
