# generated using pymatgen
data_BAsH12C2(NCl3)2
_symmetry_space_group_name_H-M   'P 1'
_cell_length_a   7.78706510
_cell_length_b   10.43479835
_cell_length_c   7.74350947
_cell_angle_alpha   88.49116842
_cell_angle_beta   88.82495608
_cell_angle_gamma   87.59717237
_symmetry_Int_Tables_number   1
_chemical_formula_structural   BAsH12C2(NCl3)2
_chemical_formula_sum   'B2 As2 H24 C4 N4 Cl12'
_cell_volume   628.32032844
_cell_formula_units_Z   2
loop_
 _symmetry_equiv_pos_site_id
 _symmetry_equiv_pos_as_xyz
  1  'x, y, z'
loop_
 _atom_site_type_symbol
 _atom_site_label
 _atom_site_symmetry_multiplicity
 _atom_site_fract_x
 _atom_site_fract_y
 _atom_site_fract_z
 _atom_site_occupancy
  C  C0  1  0.47806363  0.24854933  0.45734106  1
  C  C1  1  0.94742483  0.23399913  0.05726675  1
  C  C2  1  0.53255808  0.75721194  0.55335063  1
  C  C3  1  0.02384706  0.75224239  0.92088575  1
  N  N4  1  0.58761934  0.25919113  0.61126421  1
  N  N5  1  0.06407982  0.27046741  0.91123959  1
  N  N6  1  0.41921506  0.73904459  0.40337454  1
  N  N7  1  0.91873523  0.75318305  0.08348378  1
  H  H8  1  0.56066386  0.23926521  0.34223008  1
  H  H9  1  0.40092843  0.16354919  0.47396830  1
  H  H10  1  0.39258395  0.33421062  0.44668609  1
  H  H11  1  0.66210857  0.17505115  0.63683262  1
  H  H12  1  0.67039858  0.33382039  0.59588318  1
  H  H13  1  0.51517571  0.27812413  0.72204658  1
  H  H14  1  0.02344485  0.21240841  0.17231625  1
  H  H15  1  0.87952517  0.14944974  0.02156340  1
  H  H16  1  0.85528061  0.31403027  0.08009475  1
  H  H17  1  0.13843432  0.19196096  0.86815243  1
  H  H18  1  0.14617526  0.34082286  0.94482209  1
  H  H19  1  0.99634079  0.30840777  0.80678332  1
  H  H20  1  0.45196485  0.76384225  0.67024470  1
  H  H21  1  0.62308650  0.67456243  0.56501287  1
  H  H22  1  0.60221478  0.84522510  0.53096628  1
  H  H23  1  0.33939528  0.81950689  0.37928382  1
  H  H24  1  0.33851101  0.66381831  0.42665074  1
  H  H25  1  0.48732432  0.72242094  0.28899831  1
  H  H26  1  0.93759228  0.76331951  0.81167570  1
  H  H27  1  0.10938720  0.83237823  0.92149178  1
  H  H28  1  0.09798957  0.66115117  0.91477812  1
  H  H29  1  0.85038501  0.83965207  0.10146450  1
  H  H30  1  0.83138021  0.68092108  0.08510113  1
  H  H31  1  0.99298218  0.73825032  0.19198906  1
  B  B32  1  0.39145503  0.99627613  0.99776815  1
  B  B33  1  0.99473976  0.49323970  0.38072080  1
  As  As34  1  0.99616960  0.99511352  0.51170900  1
  As  As35  1  0.53623664  0.48600851  0.99187106  1
  Cl  Cl36  1  0.50460394  0.14376379  0.02874965  1
  Cl  Cl37  1  0.22226568  0.98002968  0.17324216  1
  Cl  Cl38  1  0.77865245  0.99221157  0.31497681  1
  Cl  Cl39  1  0.02467597  0.33975719  0.49996096  1
  Cl  Cl40  1  0.28592145  0.01765093  0.77964053  1
  Cl  Cl41  1  0.80939492  0.01323445  0.74400882  1
  Cl  Cl42  1  0.52105146  0.84409926  0.99807017  1
  Cl  Cl43  1  0.76424322  0.50604192  0.30770555  1
  Cl  Cl44  1  0.14901377  0.49291970  0.19087176  1
  Cl  Cl45  1  0.03196483  0.64091090  0.49862663  1
  Cl  Cl46  1  0.34081455  0.49209604  0.76923244  1
  Cl  Cl47  1  0.77400411  0.50668703  0.81589968  1
