# generated using pymatgen
data_GeBH12C2(NCl3)2
_symmetry_space_group_name_H-M   'P 1'
_cell_length_a   8.07232764
_cell_length_b   10.01378490
_cell_length_c   8.08464171
_cell_angle_alpha   85.90635086
_cell_angle_beta   86.90768509
_cell_angle_gamma   85.47835751
_symmetry_Int_Tables_number   1
_chemical_formula_structural   GeBH12C2(NCl3)2
_chemical_formula_sum   'Ge2 B2 H24 C4 N4 Cl12'
_cell_volume   649.05464789
_cell_formula_units_Z   2
loop_
 _symmetry_equiv_pos_site_id
 _symmetry_equiv_pos_as_xyz
  1  'x, y, z'
loop_
 _atom_site_type_symbol
 _atom_site_label
 _atom_site_symmetry_multiplicity
 _atom_site_fract_x
 _atom_site_fract_y
 _atom_site_fract_z
 _atom_site_occupancy
  C  C0  1  0.45518891  0.23903225  0.44592901  1
  C  C1  1  0.93926400  0.23497335  0.05736290  1
  C  C2  1  0.53091703  0.76165546  0.54617485  1
  C  C3  1  0.07012077  0.74649221  0.94437457  1
  N  N4  1  0.60063183  0.21276827  0.55213749  1
  N  N5  1  0.05921543  0.26662704  0.91674449  1
  N  N6  1  0.39627913  0.75984484  0.43274572  1
  N  N7  1  0.93702784  0.78510620  0.06989577  1
  H  H8  1  0.49766368  0.28479674  0.32587888  1
  H  H9  1  0.40367568  0.14336965  0.42800641  1
  H  H10  1  0.36102879  0.30632950  0.50626339  1
  H  H11  1  0.68940333  0.14418374  0.49900280  1
  H  H12  1  0.65950788  0.29853532  0.56779941  1
  H  H13  1  0.56711145  0.17067494  0.66862695  1
  H  H14  1  0.00724762  0.21257741  0.17022308  1
  H  H15  1  0.87558507  0.14813553  0.02851745  1
  H  H16  1  0.85124158  0.32232509  0.07138106  1
  H  H17  1  0.13835520  0.18324018  0.89007451  1
  H  H18  1  0.13116831  0.34281222  0.94279347  1
  H  H19  1  -0.00012454  0.29669872  0.80841326  1
  H  H20  1  0.47818855  0.76102224  0.67453521  1
  H  H21  1  0.62794170  0.67790334  0.53902792  1
  H  H22  1  0.59310545  0.85515314  0.52190406  1
  H  H23  1  0.05513264  0.83580058  0.58316566  1
  H  H24  1  0.33840097  0.67228895  0.45053809  1
  H  H25  1  0.44188799  0.76632631  0.31213212  1
  H  H26  1  0.01702336  0.69016179  0.85148257  1
  H  H27  1  0.11779675  0.83787526  0.88469369  1
  H  H28  1  0.16793214  0.68459763  0.00770579  1
  H  H29  1  0.84241405  0.84520008  0.01383199  1
  H  H30  1  0.88490482  0.70222226  0.12980666  1
  H  H31  1  0.97781634  0.84041189  0.16148055  1
  B  B32  1  0.41475296  0.00690032  0.99101530  1
  B  B33  1  0.97508002  0.48266639  0.37518121  1
  Ge  Ge34  1  0.06071558  -0.00818766  0.53123122  1
  Ge  Ge35  1  0.50275605  0.52776966  0.96785540  1
  Cl  Cl36  1  0.53694645  0.15133017  0.02223793  1
  Cl  Cl37  1  0.23976308  0.00043608  0.14503377  1
  Cl  Cl38  1  0.82949085  -0.00661411  0.34919173  1
  Cl  Cl39  1  0.97867477  0.32473141  0.50927405  1
  Cl  Cl40  1  0.33647029  0.02962695  0.77602079  1
  Cl  Cl41  1  0.86827431  0.03028471  0.76538652  1
  Cl  Cl42  1  0.54650068  0.84301023  0.00904930  1
  Cl  Cl43  1  0.76517367  0.51073695  0.27823968  1
  Cl  Cl44  1  0.14696300  0.46297836  0.20821325  1
  Cl  Cl45  1  0.00749301  0.62769094  0.48694258  1
  Cl  Cl46  1  0.33497010  0.48092918  0.76601200  1
  Cl  Cl47  1  0.74294515  0.50664653  0.81676207  1
