# generated using pymatgen
data_GaBH12C2(NCl3)2
_symmetry_space_group_name_H-M   'P 1'
_cell_length_a   8.03234178
_cell_length_b   9.38119783
_cell_length_c   8.43272358
_cell_angle_alpha   88.32504384
_cell_angle_beta   89.15216731
_cell_angle_gamma   89.73676890
_symmetry_Int_Tables_number   1
_chemical_formula_structural   GaBH12C2(NCl3)2
_chemical_formula_sum   'Ga2 B2 H24 C4 N4 Cl12'
_cell_volume   635.08436914
_cell_formula_units_Z   2
loop_
 _symmetry_equiv_pos_site_id
 _symmetry_equiv_pos_as_xyz
  1  'x, y, z'
loop_
 _atom_site_type_symbol
 _atom_site_label
 _atom_site_symmetry_multiplicity
 _atom_site_fract_x
 _atom_site_fract_y
 _atom_site_fract_z
 _atom_site_occupancy
  C  C0  1  0.48832340  0.25170818  0.44817822  1
  C  C1  1  0.95688867  0.24068208  0.07153957  1
  C  C2  1  0.51153772  0.73889638  0.57087984  1
  C  C3  1  0.01651669  0.73417090  0.91198050  1
  N  N4  1  0.56739141  0.24696468  0.60606711  1
  N  N5  1  0.02239264  0.26282787  0.90749304  1
  N  N6  1  0.44495331  0.77326631  0.40995399  1
  N  N7  1  0.93226419  0.77695111  0.06117673  1
  H  H8  1  0.58488492  0.25673697  0.35550545  1
  H  H9  1  0.41413739  0.15507248  0.43546568  1
  H  H10  1  0.40608881  0.34504863  0.44028276  1
  H  H11  1  0.64715129  0.15938732  0.62394701  1
  H  H12  1  0.63706489  0.33769638  0.62909801  1
  H  H13  1  0.47803179  0.24340780  0.69570600  1
  H  H14  1  0.06004170  0.22711062  0.15362274  1
  H  H15  1  0.87753498  0.14619438  0.07678401  1
  H  H16  1  0.88304830  0.33430041  0.10268721  1
  H  H17  1  0.05826702  0.16823132  0.85738520  1
  H  H18  1  0.12465965  0.33230925  0.89813707  1
  H  H19  1  0.93021751  0.30975333  0.83712549  1
  H  H20  1  0.41046287  0.69955135  0.64835191  1
  H  H21  1  0.60856974  0.65738382  0.56025946  1
  H  H22  1  0.56625027  0.83583281  0.61668572  1
  H  H23  1  0.34453560  0.84244403  0.41486772  1
  H  H24  1  0.40330709  0.68406687  0.35346141  1
  H  H25  1  0.53832450  0.82403806  0.34104895  1
  H  H26  1  0.92172805  0.70097999  0.82964580  1
  H  H27  1  0.08494994  0.82597219  0.86272655  1
  H  H28  1  0.10187522  0.64567690  0.93771937  1
  H  H29  1  0.83700483  0.84943739  0.04072840  1
  H  H30  1  0.88058064  0.69085934  0.12462713  1
  H  H31  1  0.01542962  0.82478553  0.13510214  1
  B  B32  1  0.40730182  0.99220287  0.97879888  1
  B  B33  1  0.01175775  0.50919254  0.40051711  1
  Ga  Ga34  1  0.00436606  0.98297472  0.48713311  1
  Ga  Ga35  1  0.51613881  0.47835988  0.01393224  1
  Cl  Cl36  1  0.54137182  0.14635568  0.01271101  1
  Cl  Cl37  1  0.24641820  0.98159570  0.14316003  1
  Cl  Cl38  1  0.75362047  0.96384019  0.32168463  1
  Cl  Cl39  1  0.02490018  0.33146386  0.49970793  1
  Cl  Cl40  1  0.30328618  0.01619678  0.78234997  1
  Cl  Cl41  1  0.82998909  0.01408028  0.72690058  1
  Cl  Cl42  1  0.52746499  0.82273500  0.98148075  1
  Cl  Cl43  1  0.79827239  0.53049559  0.31300524  1
  Cl  Cl44  1  0.17356095  0.52338616  0.23789805  1
  Cl  Cl45  1  0.04879847  0.65383684  0.53874674  1
  Cl  Cl46  1  0.31458931  0.45413893  0.79966193  1
  Cl  Cl47  1  0.74377260  0.47747858  0.80436823  1
