# generated using pymatgen
data_ZnBH12C2(NCl3)2
_symmetry_space_group_name_H-M   'P 1'
_cell_length_a   7.15152753
_cell_length_b   10.77346155
_cell_length_c   8.34408641
_cell_angle_alpha   87.39133858
_cell_angle_beta   79.18452862
_cell_angle_gamma   86.83097482
_symmetry_Int_Tables_number   1
_chemical_formula_structural   ZnBH12C2(NCl3)2
_chemical_formula_sum   'Zn2 B2 H24 C4 N4 Cl12'
_cell_volume   630.09407728
_cell_formula_units_Z   2
loop_
 _symmetry_equiv_pos_site_id
 _symmetry_equiv_pos_as_xyz
  1  'x, y, z'
loop_
 _atom_site_type_symbol
 _atom_site_label
 _atom_site_symmetry_multiplicity
 _atom_site_fract_x
 _atom_site_fract_y
 _atom_site_fract_z
 _atom_site_occupancy
  C  C0  1  0.44109095  0.24686889  0.36608260  1
  C  C1  1  0.95098630  0.21934602  0.07132057  1
  C  C2  1  0.56418727  0.76789265  0.62739775  1
  C  C3  1  0.11163482  0.75510256  0.89493687  1
  N  N4  1  0.52587398  0.22076061  0.51422310  1
  N  N5  1  0.08441378  0.28531188  0.94155330  1
  N  N6  1  0.39468837  0.78202053  0.54806879  1
  N  N7  1  0.96221658  0.75336511  0.04431158  1
  H  H8  1  0.55138912  0.26554838  0.25942721  1
  H  H9  1  0.36538722  0.16561468  0.34430240  1
  H  H10  1  0.34271685  0.32819811  0.38674846  1
  H  H11  1  0.65938344  0.17489758  0.49091336  1
  H  H12  1  0.53531193  0.30077331  0.57596517  1
  H  H13  1  0.43795374  0.16117609  0.59634200  1
  H  H14  1  0.02403240  0.19329724  0.17291116  1
  H  H15  1  0.90363203  0.13694622  0.02144502  1
  H  H16  1  0.82822745  0.28270006  0.11145273  1
  H  H17  1  0.19037122  0.22472555  0.88251920  1
  H  H18  1  0.15000414  0.35499918  0.99272759  1
  H  H19  1  0.01287501  0.32936290  0.85668534  1
  H  H20  1  0.51770809  0.77420369  0.75926257  1
  H  H21  1  0.63346325  0.67654585  0.60082405  1
  H  H22  1  0.66017662  0.84262341  0.58169058  1
  H  H23  1  0.31909689  0.86619170  0.58245864  1
  H  H24  1  0.31231010  0.70562048  0.58281295  1
  H  H25  1  0.43235093  0.78263033  0.42135658  1
  H  H26  1  0.03910325  0.75107163  0.79074808  1
  H  H27  1  0.18624073  0.84173218  0.88861433  1
  H  H28  1  0.20747206  0.67289561  0.90009621  1
  H  H29  1  0.86925194  0.83088144  0.04107871  1
  H  H30  1  0.88153124  0.67540551  0.04526189  1
  H  H31  1  0.01906453  0.75270724  0.14897533  1
  B  B32  1  0.51406236  0.92002499  0.11865802  1
  B  B33  1  0.90665620  0.50087647  0.42297353  1
  Zn  Zn34  1  0.94624228  0.02685458  0.52809649  1
  Zn  Zn35  1  0.50887909  0.45119792  0.89163301  1
  Cl  Cl36  1  0.57345762  0.24532004  0.88392350  1
  Cl  Cl37  1  0.28201807  0.00538447  0.13780100  1
  Cl  Cl38  1  0.65253472  0.96567996  0.27490931  1
  Cl  Cl39  1  0.96531789  0.36102749  0.51814886  1
  Cl  Cl40  1  0.23705804  0.04147684  0.69936309  1
  Cl  Cl41  1  0.66769939  0.94490116  0.91533755  1
  Cl  Cl42  1  0.46709223  0.75063514  0.15300908  1
  Cl  Cl43  1  0.73205290  0.50552725  0.30289775  1
  Cl  Cl44  1  0.27023131  0.48423198  0.11520934  1
  Cl  Cl45  1  0.01102193  0.64003837  0.45042313  1
  Cl  Cl46  1  0.36233132  0.49305380  0.66889291  1
  Cl  Cl47  1  0.78922217  0.54243118  0.87650593  1
