# generated using pymatgen
data_CuBH12C2(NCl3)2
_symmetry_space_group_name_H-M   'P 1'
_cell_length_a   7.31941266
_cell_length_b   9.44500060
_cell_length_c   8.92032266
_cell_angle_alpha   95.51851339
_cell_angle_beta   89.41774569
_cell_angle_gamma   92.01774390
_symmetry_Int_Tables_number   1
_chemical_formula_structural   CuBH12C2(NCl3)2
_chemical_formula_sum   'Cu2 B2 H24 C4 N4 Cl12'
_cell_volume   613.42545567
_cell_formula_units_Z   2
loop_
 _symmetry_equiv_pos_site_id
 _symmetry_equiv_pos_as_xyz
  1  'x, y, z'
loop_
 _atom_site_type_symbol
 _atom_site_label
 _atom_site_symmetry_multiplicity
 _atom_site_fract_x
 _atom_site_fract_y
 _atom_site_fract_z
 _atom_site_occupancy
  C  C0  1  0.50471482  0.27223766  0.42021788  1
  C  C1  1  0.98456079  0.20994372  0.06000452  1
  C  C2  1  0.51830746  0.69860641  0.59104816  1
  C  C3  1  0.01128342  0.81316833  0.91793357  1
  N  N4  1  0.54860931  0.28561807  0.58290686  1
  N  N5  1  0.02452756  0.19778366  0.89616574  1
  N  N6  1  0.46454483  0.79024606  0.47397058  1
  N  N7  1  0.96533563  0.73351291  0.04924316  1
  H  H8  1  0.62736878  0.23995418  0.35663959  1
  H  H9  1  0.39415323  0.19186065  0.40173326  1
  H  H10  1  0.45967200  0.37438056  0.38850574  1
  H  H11  1  0.59673347  0.18934981  0.61821827  1
  H  H12  1  0.65080501  0.36165985  0.61140567  1
  H  H13  1  0.43489256  0.31211799  0.64801958  1
  H  H14  1  0.10971955  0.24139071  0.12248799  1
  H  H15  1  0.92895438  0.10846482  0.09348657  1
  H  H16  1  0.88407756  0.29240576  0.08393379  1
  H  H17  1  0.12415242  0.12647159  0.86063038  1
  H  H18  1  0.07202989  0.29611038  0.86349841  1
  H  H19  1  0.90893350  0.16227228  0.83225619  1
  H  H20  1  0.39512933  0.64543162  0.63271511  1
  H  H21  1  0.61521988  0.62153244  0.54156690  1
  H  H22  1  0.58498151  0.76662554  0.68203100  1
  H  H23  1  0.38236053  0.87253962  0.52173294  1
  H  H24  1  0.38851493  0.73138530  0.39110489  1
  H  H25  1  0.57817418  0.83747325  0.42341207  1
  H  H26  1  0.88547504  0.84786460  0.86949495  1
  H  H27  1  0.09868011  0.90576513  0.95487089  1
  H  H28  1  0.08381691  0.74332349  0.83439463  1
  H  H29  1  0.90065086  0.79660486  0.13626108  1
  H  H30  1  0.88039597  0.64537108  0.01439958  1
  H  H31  1  0.07890879  0.69172831  0.09499571  1
  B  B32  1  0.43226785  0.98409009  0.08929967  1
  B  B33  1  0.00557887  0.52290641  0.39086107  1
  Cu  Cu34  1  0.94534071  0.99195492  0.51878495  1
  Cu  Cu35  1  0.49679471  0.48443378  0.88843469  1
  Cl  Cl36  1  0.49360019  0.15228111  0.03645254  1
  Cl  Cl37  1  0.26805465  0.96945140  0.23131779  1
  Cl  Cl38  1  0.79159419  0.94881623  0.30345089  1
  Cl  Cl39  1  0.01548233  0.34823348  0.46674592  1
  Cl  Cl40  1  0.21901542  0.03058337  0.62347889  1
  Cl  Cl41  1  0.72157439  0.03043077  0.70429223  1
  Cl  Cl42  1  0.51009996  0.82889641  0.99114158  1
  Cl  Cl43  1  0.79136745  0.52965856  0.27991450  1
  Cl  Cl44  1  0.21146152  0.54447232  0.26017692  1
  Cl  Cl45  1  0.01440609  0.67079848  0.54095779  1
  Cl  Cl46  1  0.21930420  0.48714713  0.84351712  1
  Cl  Cl47  1  0.77839699  0.47272314  0.86218439  1
