# generated using pymatgen
data_ScBH12C2(NCl3)2
_symmetry_space_group_name_H-M   'P 1'
_cell_length_a   7.47983590
_cell_length_b   11.11645001
_cell_length_c   8.30639718
_cell_angle_alpha   88.99715622
_cell_angle_beta   96.89748719
_cell_angle_gamma   85.53264129
_symmetry_Int_Tables_number   1
_chemical_formula_structural   ScBH12C2(NCl3)2
_chemical_formula_sum   'Sc2 B2 H24 C4 N4 Cl12'
_cell_volume   683.33694785
_cell_formula_units_Z   2
loop_
 _symmetry_equiv_pos_site_id
 _symmetry_equiv_pos_as_xyz
  1  'x, y, z'
loop_
 _atom_site_type_symbol
 _atom_site_label
 _atom_site_symmetry_multiplicity
 _atom_site_fract_x
 _atom_site_fract_y
 _atom_site_fract_z
 _atom_site_occupancy
  C  C0  1  0.45509234  0.18565132  0.43938893  1
  C  C1  1  0.96659679  0.23605438  0.02156575  1
  C  C2  1  0.46635191  0.77579000  0.46222165  1
  C  C3  1  0.05498024  0.78054653  0.00446931  1
  N  N4  1  0.55690029  0.22957573  0.58942821  1
  N  N5  1  0.12639268  0.27190933  0.94724730  1
  N  N6  1  0.38073610  0.71221458  0.32268450  1
  N  N7  1  0.04876628  0.79103069  0.18119148  1
  H  H8  1  0.49771056  0.23000078  0.33321395  1
  H  H9  1  0.48643619  0.08834378  0.43282248  1
  H  H10  1  0.31045473  0.20672593  0.44462150  1
  H  H11  1  0.69305270  0.23587630  0.57663948  1
  H  H12  1  0.50239252  0.31405484  0.62060198  1
  H  H13  1  0.55290072  0.17166241  0.68859167  1
  H  H14  1  0.99411452  0.23750079  0.15383873  1
  H  H15  1  0.93516241  0.14446573  0.98788540  1
  H  H16  1  0.85025704  0.30017002  0.98207867  1
  H  H17  1  0.24038737  0.22256791  0.00244344  1
  H  H18  1  0.31709074  0.52459955  0.06261968  1
  H  H19  1  0.11230794  0.24352648  0.82830098  1
  H  H20  1  0.38654769  0.77010026  0.56402260  1
  H  H21  1  0.60533909  0.73946974  0.50241210  1
  H  H22  1  0.46768010  0.87138270  0.42840976  1
  H  H23  1  0.14635293  0.91640701  0.46431784  1
  H  H24  1  0.37757416  0.62242924  0.35094666  1
  H  H25  1  0.45530090  0.71626944  0.22701782  1
  H  H26  1  0.92282529  0.76411662  0.94158935  1
  H  H27  1  0.09884865  0.86364887  0.95601729  1
  H  H28  1  0.15553241  0.70600392  0.98593855  1
  H  H29  1  0.00687427  0.87739273  0.21335280  1
  H  H30  1  0.95919117  0.73597002  0.22208475  1
  H  H31  1  0.18707479  0.76347656  0.25055540  1
  B  B32  1  0.42566536  0.99780159  0.97412167  1
  B  B33  1  0.90344777  0.50539276  0.35119935  1
  Sc  Sc34  1  0.98966183  0.02425259  0.54556605  1
  Sc  Sc35  1  0.16232910  0.46330230  0.90435507  1
  Cl  Cl36  1  0.54834200  0.13729026  0.96036288  1
  Cl  Cl37  1  0.27602397  0.01932027  0.13373724  1
  Cl  Cl38  1  0.81827940  0.03573904  0.29096163  1
  Cl  Cl39  1  0.98912984  0.24439420  0.57252909  1
  Cl  Cl40  1  0.29492266  0.98243950  0.76029549  1
  Cl  Cl41  1  0.78584455  0.94679115  0.70061461  1
  Cl  Cl42  1  0.57015969  0.85768332  0.01284478  1
  Cl  Cl43  1  0.69834509  0.45171593  0.27594002  1
  Cl  Cl44  1  0.10659427  0.45114342  0.28308446  1
  Cl  Cl45  1  0.91217357  0.62441450  0.48434299  1
  Cl  Cl46  1  0.34522505  0.47655877  0.69308802  1
  Cl  Cl47  1  0.85665407  0.53290448  0.86873324  1
