# generated using pymatgen
data_CaBH12C2(NCl3)2
_symmetry_space_group_name_H-M   'P 1'
_cell_length_a   6.93206619
_cell_length_b   10.12917567
_cell_length_c   9.74133448
_cell_angle_alpha   93.16185209
_cell_angle_beta   81.15349907
_cell_angle_gamma   91.28834825
_symmetry_Int_Tables_number   1
_chemical_formula_structural   CaBH12C2(NCl3)2
_chemical_formula_sum   'Ca2 B2 H24 C4 N4 Cl12'
_cell_volume   674.76493279
_cell_formula_units_Z   2
loop_
 _symmetry_equiv_pos_site_id
 _symmetry_equiv_pos_as_xyz
  1  'x, y, z'
loop_
 _atom_site_type_symbol
 _atom_site_label
 _atom_site_symmetry_multiplicity
 _atom_site_fract_x
 _atom_site_fract_y
 _atom_site_fract_z
 _atom_site_occupancy
  C  C0  1  0.45691594  0.17763987  0.49512821  1
  C  C1  1  0.99935188  0.21736667  0.99692925  1
  C  C2  1  0.46328573  0.80520587  0.51988132  1
  C  C3  1  0.11080382  0.76085792  0.78816510  1
  N  N4  1  0.62614509  0.22429806  0.56161994  1
  N  N5  1  0.02999040  0.26620438  0.85342340  1
  N  N6  1  0.36605573  0.83720207  0.40129765  1
  N  N7  1  0.81886323  0.78679566  0.24245020  1
  H  H8  1  0.40480413  0.25853719  0.44117561  1
  H  H9  1  0.50622612  0.09741839  0.41890672  1
  H  H10  1  0.33906044  0.14340552  0.57406362  1
  H  H11  1  0.74134621  0.24876261  0.48471616  1
  H  H12  1  0.58983687  0.30424966  0.63208304  1
  H  H13  1  0.68376755  0.14968726  0.61343882  1
  H  H14  1  0.09971870  0.26940629  0.05827511  1
  H  H15  1  0.02653778  0.11135228  0.99168301  1
  H  H16  1  0.84953917  0.23749312  0.04525445  1
  H  H17  1  0.17687213  0.28967434  0.82192627  1
  H  H18  1  0.95787847  0.35558877  0.85541513  1
  H  H19  1  0.98223557  0.19660030  0.78231798  1
  H  H20  1  0.38810796  0.72044823  0.57035811  1
  H  H21  1  0.61676771  0.77740395  0.48969446  1
  H  H22  1  0.45728967  0.88864056  0.59700965  1
  H  H23  1  0.15721786  0.83454672  0.71205951  1
  H  H24  1  0.35665281  0.75186830  0.34019293  1
  H  H25  1  0.45157409  0.90061475  0.33824729  1
  H  H26  1  0.95307059  0.74655456  0.80075488  1
  H  H27  1  0.18081101  0.66621344  0.75210362  1
  H  H28  1  0.14862269  0.80211452  0.88679834  1
  H  H29  1  0.75201989  0.85805351  0.19570307  1
  H  H30  1  0.71083630  0.72882585  0.29340978  1
  H  H31  1  0.87963855  0.72377193  0.16135024  1
  B  B32  1  0.45334305  0.94186118  0.99793125  1
  B  B33  1  0.99313442  0.50705825  0.41987569  1
  Ca  Ca34  1  0.01908115  0.91121668  0.40618891  1
  Ca  Ca35  1  0.26753037  0.60347233  0.99027003  1
  Cl  Cl36  1  0.58836621  0.03654727  0.11745483  1
  Cl  Cl37  1  0.21622729  0.87839199  0.10677033  1
  Cl  Cl38  1  0.94059557  0.13087516  0.30914102  1
  Cl  Cl39  1  0.06122886  0.38728359  0.53747438  1
  Cl  Cl40  1  0.39854962  0.04109331  0.85847867  1
  Cl  Cl41  1  0.90181188  0.02059992  0.66328293  1
  Cl  Cl42  1  0.58313108  0.78671311  0.92467072  1
  Cl  Cl43  1  0.78058716  0.46037992  0.33912891  1
  Cl  Cl44  1  0.22377369  0.53114060  0.27807929  1
  Cl  Cl45  1  0.94597276  0.66538868  0.52566408  1
  Cl  Cl46  1  0.44101692  0.42126911  0.81697600  1
  Cl  Cl47  1  0.90382960  0.53998461  0.99307662  1
