# generated using pymatgen
data_MgBH12C2(I3N)2
_symmetry_space_group_name_H-M   'P 1'
_cell_length_a   8.61895036
_cell_length_b   11.19905612
_cell_length_c   8.67155700
_cell_angle_alpha   89.37486356
_cell_angle_beta   90.74458171
_cell_angle_gamma   91.66381494
_symmetry_Int_Tables_number   1
_chemical_formula_structural   MgBH12C2(I3N)2
_chemical_formula_sum   'Mg2 B2 H24 C4 I12 N4'
_cell_volume   836.54431840
_cell_formula_units_Z   2
loop_
 _symmetry_equiv_pos_site_id
 _symmetry_equiv_pos_as_xyz
  1  'x, y, z'
loop_
 _atom_site_type_symbol
 _atom_site_label
 _atom_site_symmetry_multiplicity
 _atom_site_fract_x
 _atom_site_fract_y
 _atom_site_fract_z
 _atom_site_occupancy
  C  C0  1  0.46952292  0.25413841  0.44992880  1
  C  C1  1  0.95208510  0.24876522  0.06128976  1
  C  C2  1  0.55308184  0.74589367  0.56898632  1
  C  C3  1  0.03423018  0.73793549  0.93776552  1
  N  N4  1  0.57547805  0.25167859  0.58625458  1
  N  N5  1  0.04071267  0.26451439  0.91658549  1
  N  N6  1  0.45570659  0.72745392  0.42800153  1
  N  N7  1  0.93200937  0.75076704  0.07351047  1
  H  H8  1  0.53996119  0.26327067  0.34653075  1
  H  H9  1  0.40059704  0.17054757  0.44672131  1
  H  H10  1  0.39348698  0.33018338  0.46035398  1
  H  H11  1  0.64715593  0.17888054  0.58448795  1
  H  H12  1  0.64630576  0.32875192  0.59485169  1
  H  H13  1  0.51390961  0.24711333  0.68800589  1
  H  H14  1  0.03283675  0.24478105  0.15932491  1
  H  H15  1  0.88235119  0.16564257  0.05437168  1
  H  H16  1  0.87794901  0.32577066  0.07343495  1
  H  H17  1  0.10133121  0.18922910  0.89059575  1
  H  H18  1  0.11947825  0.33716087  0.91934277  1
  H  H19  1  0.96819112  0.28067948  0.82240520  1
  H  H20  1  0.48185022  0.72639410  0.67040143  1
  H  H21  1  0.65045847  0.68524592  0.56649048  1
  H  H22  1  0.59616567  0.83882209  0.57058040  1
  H  H23  1  0.35306754  0.77441916  0.43332512  1
  H  H24  1  0.42115163  0.63874158  0.41496468  1
  H  H25  1  0.51187205  0.75358567  0.32665543  1
  H  H26  1  0.96154175  0.73246040  0.83364320  1
  H  H27  1  0.11303657  0.81611652  0.93098708  1
  H  H28  1  0.10054447  0.65656967  0.95206889  1
  H  H29  1  0.86009705  0.82298421  0.05966699  1
  H  H30  1  0.86009294  0.67556884  0.09054222  1
  H  H31  1  0.99437787  0.76255055  0.17617794  1
  B  B32  1  0.34809662  0.08043729  0.98102000  1
  B  B33  1  0.00322509  0.47436934  0.40913976  1
  Mg  Mg34  1  0.91806111  0.00227815  0.52095342  1
  Mg  Mg35  1  0.54875769  0.53007469  0.95435626  1
  I  I36  1  0.51086285  0.22365039  0.01583337  1
  I  I37  1  0.22217053  0.00883047  0.17148084  1
  I  I38  1  0.69768087  0.99612241  0.30147338  1
  I  I39  1  0.02464309  0.23955056  0.49954371  1
  I  I40  1  0.30378646  0.01604524  0.75402855  1
  I  I41  1  0.79861809  0.00000618  0.80580706  1
  I  I42  1  0.50194371  0.75934281  0.01862102  1
  I  I43  1  0.71613713  0.49493009  0.25502988  1
  I  I44  1  0.20100290  0.49348329  0.22443738  1
  I  I45  1  0.06393332  0.79009200  0.48082359  1
  I  I46  1  0.30654789  0.47817901  0.74946072  1
  I  I47  1  0.79391939  0.48606976  0.77003452  1
