# generated using pymatgen
data_BPH12C2(NCl3)2
_symmetry_space_group_name_H-M   'P 1'
_cell_length_a   7.52942415
_cell_length_b   10.44856850
_cell_length_c   8.01053406
_cell_angle_alpha   88.76112105
_cell_angle_beta   90.14330224
_cell_angle_gamma   85.91084434
_symmetry_Int_Tables_number   1
_chemical_formula_structural   BPH12C2(NCl3)2
_chemical_formula_sum   'B2 P2 H24 C4 N4 Cl12'
_cell_volume   628.44595263
_cell_formula_units_Z   2
loop_
 _symmetry_equiv_pos_site_id
 _symmetry_equiv_pos_as_xyz
  1  'x, y, z'
loop_
 _atom_site_type_symbol
 _atom_site_label
 _atom_site_symmetry_multiplicity
 _atom_site_fract_x
 _atom_site_fract_y
 _atom_site_fract_z
 _atom_site_occupancy
  C  C0  1  0.48118096  0.25124586  0.43997711  1
  C  C1  1  0.95515790  0.23967085  0.05985401  1
  C  C2  1  0.50115187  0.75752218  0.54691682  1
  C  C3  1  0.05225607  0.73448121  0.93346052  1
  N  N4  1  0.57348057  0.25275330  0.60437195  1
  N  N5  1  0.06179684  0.27081925  0.91081384  1
  N  N6  1  0.38981410  0.74758169  0.39746832  1
  N  N7  1  0.97390790  0.75142171  0.10266788  1
  H  H8  1  0.57053893  0.28216948  0.34181568  1
  H  H9  1  0.44417496  0.15355069  0.41742568  1
  H  H10  1  0.36184072  0.31711386  0.44388663  1
  H  H11  1  0.68328092  0.18744025  0.61005298  1
  H  H12  1  0.61638244  0.34229501  0.63191038  1
  H  H13  1  0.49115363  0.22799304  0.70145153  1
  H  H14  1  0.04407041  0.22589263  0.16754910  1
  H  H15  1  0.88997488  0.15167526  0.03673104  1
  H  H16  1  0.85496869  0.31892901  0.07981931  1
  H  H17  1  0.13805579  0.19123807  0.86849437  1
  H  H18  1  0.14885474  0.34179783  0.93150367  1
  H  H19  1  0.98048925  0.30693380  0.81366811  1
  H  H20  1  0.42181915  0.74209936  0.65953282  1
  H  H21  1  0.61911974  0.68840217  0.55358917  1
  H  H22  1  0.54782905  0.85458764  0.55284973  1
  H  H23  1  0.05012835  0.86304405  0.50471072  1
  H  H24  1  0.35131447  0.65580035  0.39068400  1
  H  H25  1  0.46360169  0.76172893  0.29227116  1
  H  H26  1  0.94828387  0.70561251  0.84936709  1
  H  H27  1  0.10229722  0.82550441  0.89190245  1
  H  H28  1  0.16200896  0.66012261  0.94133145  1
  H  H29  1  0.87588885  0.82598908  0.10332187  1
  H  H30  1  0.91400039  0.66976368  0.14407722  1
  H  H31  1  0.07040018  0.77033721  0.18917117  1
  B  B32  1  0.41946787  0.00415944  0.97497108  1
  B  B33  1  0.98368116  0.48905892  0.38786217  1
  P  P34  1  0.01402615  0.99933584  0.49620784  1
  P  P35  1  0.52004743  0.48940487  0.97761326  1
  Cl  Cl36  1  0.52749837  0.15416909  0.01031038  1
  Cl  Cl37  1  0.23967414  0.99010673  0.13144754  1
  Cl  Cl38  1  0.80658013  0.99639457  0.32241612  1
  Cl  Cl39  1  0.99087153  0.32883413  0.50023279  1
  Cl  Cl40  1  0.31472411  0.02496058  0.75734777  1
  Cl  Cl41  1  0.85653760  0.00844040  0.71265598  1
  Cl  Cl42  1  0.56909490  0.85720112  0.98036112  1
  Cl  Cl43  1  0.76266342  0.52043547  0.28425607  1
  Cl  Cl44  1  0.16560876  0.48032455  0.22838976  1
  Cl  Cl45  1  0.01687488  0.62101919  0.52863292  1
  Cl  Cl46  1  0.32672611  0.46879576  0.78082826  1
  Cl  Cl47  1  0.74672368  0.49192060  0.81411580  1
