# generated using pymatgen
data_SiBH12C2(NCl3)2
_symmetry_space_group_name_H-M   'P 1'
_cell_length_a   8.02589614
_cell_length_b   10.20405607
_cell_length_c   7.88910616
_cell_angle_alpha   88.59032069
_cell_angle_beta   89.40607592
_cell_angle_gamma   87.55151406
_symmetry_Int_Tables_number   1
_chemical_formula_structural   SiBH12C2(NCl3)2
_chemical_formula_sum   'Si2 B2 H24 C4 N4 Cl12'
_cell_volume   645.27842986
_cell_formula_units_Z   2
loop_
 _symmetry_equiv_pos_site_id
 _symmetry_equiv_pos_as_xyz
  1  'x, y, z'
loop_
 _atom_site_type_symbol
 _atom_site_label
 _atom_site_symmetry_multiplicity
 _atom_site_fract_x
 _atom_site_fract_y
 _atom_site_fract_z
 _atom_site_occupancy
  C  C0  1  0.45549504  0.24152146  0.43451362  1
  C  C1  1  0.95446669  0.22935831  0.06578477  1
  C  C2  1  0.50667481  0.75943917  0.53374664  1
  C  C3  1  0.04396644  0.75435802  0.95567371  1
  N  N4  1  0.59100257  0.22154464  0.56051602  1
  N  N5  1  0.06108126  0.26367778  0.91777035  1
  N  N6  1  0.40093136  0.73973269  0.38682575  1
  N  N7  1  0.97098533  0.77761227  0.12731077  1
  H  H8  1  0.51109543  0.27350964  0.31415381  1
  H  H9  1  0.39581854  0.14811211  0.41882365  1
  H  H10  1  0.36394742  0.31545293  0.47942055  1
  H  H11  1  0.67710297  0.14924088  0.51950451  1
  H  H12  1  0.65586069  0.30530532  0.57792483  1
  H  H13  1  0.54638324  0.19009778  0.67759081  1
  H  H14  1  0.03346237  0.20889397  0.17592580  1
  H  H15  1  0.88683300  0.14279372  0.03527002  1
  H  H16  1  0.86769631  0.31228865  0.09045668  1
  H  H17  1  0.14119134  0.18530504  0.88490344  1
  H  H18  1  0.13198148  0.34326919  0.94138699  1
  H  H19  1  0.99178124  0.28698155  0.81043181  1
  H  H20  1  0.43114166  0.75414244  0.65050325  1
  H  H21  1  0.61405443  0.68839197  0.54741772  1
  H  H22  1  0.55696094  0.85782319  0.52533251  1
  H  H23  1  0.02792470  0.85902665  0.50241582  1
  H  H24  1  0.36045410  0.64602795  0.38827898  1
  H  H25  1  0.46798809  0.75224652  0.27701903  1
  H  H26  1  0.94448521  0.72955235  0.86980610  1
  H  H27  1  0.10147317  0.84380209  0.90948292  1
  H  H28  1  0.13694022  0.67312626  0.96602371  1
  H  H29  1  0.88789358  0.85855637  0.12987303  1
  H  H30  1  0.90587890  0.69751996  0.17193934  1
  H  H31  1  0.06205047  0.79363256  0.21568704  1
  B  B32  1  0.42774567  0.01693505  0.97042008  1
  B  B33  1  0.98000674  0.48781156  0.39646806  1
  Si  Si34  1  0.02492127  0.00776486  0.49261184  1
  Si  Si35  1  0.51147616  0.45659772  0.97689752  1
  Cl  Cl36  1  0.55337677  0.17474428  0.98839653  1
  Cl  Cl37  1  0.27548943  0.01557687  0.14461084  1
  Cl  Cl38  1  0.78943165  0.01169689  0.33043933  1
  Cl  Cl39  1  0.97871610  0.32446893  0.50333090  1
  Cl  Cl40  1  0.32264198  0.03308114  0.76108317  1
  Cl  Cl41  1  0.87927688  0.02777169  0.73449767  1
  Cl  Cl42  1  0.56928465  0.87091079  0.97848638  1
  Cl  Cl43  1  0.77298850  0.52237304  0.28959877  1
  Cl  Cl44  1  0.15045494  0.48279804  0.22845741  1
  Cl  Cl45  1  0.01775388  0.61683861  0.54357635  1
  Cl  Cl46  1  0.33341787  0.46888296  0.77685338  1
  Cl  Cl47  1  0.72803826  0.47948239  0.82285440  1
