# generated using pymatgen
data_AlBH12C2(NCl3)2
_symmetry_space_group_name_H-M   'P 1'
_cell_length_a   7.85524017
_cell_length_b   9.43232381
_cell_length_c   8.77933667
_cell_angle_alpha   90.58964084
_cell_angle_beta   91.32749436
_cell_angle_gamma   88.96002746
_symmetry_Int_Tables_number   1
_chemical_formula_structural   AlBH12C2(NCl3)2
_chemical_formula_sum   'Al2 B2 H24 C4 N4 Cl12'
_cell_volume   650.17546383
_cell_formula_units_Z   2
loop_
 _symmetry_equiv_pos_site_id
 _symmetry_equiv_pos_as_xyz
  1  'x, y, z'
loop_
 _atom_site_type_symbol
 _atom_site_label
 _atom_site_symmetry_multiplicity
 _atom_site_fract_x
 _atom_site_fract_y
 _atom_site_fract_z
 _atom_site_occupancy
  C  C0  1  0.48855850  0.31823622  0.41961066  1
  C  C1  1  0.97644725  0.21183925  0.07782963  1
  C  C2  1  0.55658096  0.74569114  0.57385512  1
  C  C3  1  0.99897039  0.76181619  0.93845241  1
  N  N4  1  0.50334688  0.21912881  0.55015295  1
  N  N5  1  0.05727000  0.24394639  0.93054142  1
  N  N6  1  0.49585173  0.68041713  0.43149072  1
  N  N7  1  0.92782492  0.84474476  0.06466218  1
  H  H8  1  0.60890444  0.31394930  0.35980290  1
  H  H9  1  0.38655322  0.28172699  0.34305926  1
  H  H10  1  0.46251504  0.42692376  0.45986273  1
  H  H11  1  0.55370555  0.12236588  0.51411984  1
  H  H12  1  0.58588621  0.25826978  0.63382439  1
  H  H13  1  0.38553655  0.20344441  0.59663597  1
  H  H14  1  0.07647733  0.18425831  0.16165446  1
  H  H15  1  0.89217825  0.12156719  0.05969453  1
  H  H16  1  0.90529119  0.30586658  0.11592594  1
  H  H17  1  0.11656714  0.15447902  0.88586632  1
  H  H18  1  0.14798005  0.32209607  0.93955934  1
  H  H19  1  0.96606882  0.27820563  0.85107499  1
  H  H20  1  0.46594140  0.72513819  0.66410853  1
  H  H21  1  0.67991229  0.69769135  0.60832048  1
  H  H22  1  0.57344302  0.86150377  0.56953044  1
  H  H23  1  0.38197291  0.72595800  0.39848098  1
  H  H24  1  0.13186986  0.52625004  0.48811117  1
  H  H25  1  0.57726733  0.70111881  0.34552709  1
  H  H26  1  0.89864957  0.69680452  0.88588983  1
  H  H27  1  0.04272663  0.83266498  0.84973149  1
  H  H28  1  0.10669892  0.69088426  0.97070541  1
  H  H29  1  0.60168306  0.96776069  0.00672565  1
  H  H30  1  0.85068018  0.78322141  0.12764137  1
  H  H31  1  0.02254321  0.87757510  0.13781369  1
  B  B32  1  0.45077127  0.97614324  0.00366847  1
  B  B33  1  0.06487053  0.52176889  0.36569355  1
  Al  Al34  1  0.93544199  0.01833660  0.52744355  1
  Al  Al35  1  0.53514777  0.46622411  0.89899088  1
  Cl  Cl36  1  0.51953368  0.28354906  0.04250754  1
  Cl  Cl37  1  0.33544725  0.96834463  0.17159523  1
  Cl  Cl38  1  0.74869104  0.02554804  0.34467074  1
  Cl  Cl39  1  0.09386326  0.20436663  0.51567290  1
  Cl  Cl40  1  0.33987690  0.98920461  0.82726222  1
  Cl  Cl41  1  0.80597850  0.03585836  0.73976701  1
  Cl  Cl42  1  0.56279536  0.65687841  0.02690220  1
  Cl  Cl43  1  0.84442321  0.51799037  0.34552059  1
  Cl  Cl44  1  0.18964242  0.51703083  0.20359916  1
  Cl  Cl45  1  0.09363779  0.83330164  0.51027340  1
  Cl  Cl46  1  0.30236245  0.47045443  0.76391773  1
  Cl  Cl47  1  0.75163751  0.42953448  0.75254957  1
