# generated using pymatgen
data_MgBH12C2(NCl3)2
_symmetry_space_group_name_H-M   'P 1'
_cell_length_a   8.05404462
_cell_length_b   10.11142447
_cell_length_c   7.95757823
_cell_angle_alpha   91.40538983
_cell_angle_beta   89.52212301
_cell_angle_gamma   91.01218397
_symmetry_Int_Tables_number   1
_chemical_formula_structural   MgBH12C2(NCl3)2
_chemical_formula_sum   'Mg2 B2 H24 C4 N4 Cl12'
_cell_volume   647.73187289
_cell_formula_units_Z   2
loop_
 _symmetry_equiv_pos_site_id
 _symmetry_equiv_pos_as_xyz
  1  'x, y, z'
loop_
 _atom_site_type_symbol
 _atom_site_label
 _atom_site_symmetry_multiplicity
 _atom_site_fract_x
 _atom_site_fract_y
 _atom_site_fract_z
 _atom_site_occupancy
  C  C0  1  0.48379631  0.24886005  0.45568278  1
  C  C1  1  0.95103379  0.24892960  0.06681746  1
  C  C2  1  0.54066862  0.74191197  0.56745274  1
  C  C3  1  0.03146767  0.73014765  0.94406811  1
  N  N4  1  0.58471423  0.24636141  0.61047186  1
  N  N5  1  0.99669227  0.27463230  0.88899380  1
  N  N6  1  0.47987971  0.75156046  0.39284985  1
  N  N7  1  0.91288623  0.75110899  0.08650539  1
  H  H8  1  0.56683241  0.25181526  0.34694283  1
  H  H9  1  0.40302335  0.16087824  0.44946402  1
  H  H10  1  0.40762458  0.33730327  0.46299045  1
  H  H11  1  0.65247939  0.16051735  0.62099007  1
  H  H12  1  0.66618823  0.32774040  0.62068486  1
  H  H13  1  0.50871517  0.25475560  0.71546965  1
  H  H14  1  0.06203273  0.23107661  0.14009076  1
  H  H15  1  0.86914187  0.16150658  0.07067675  1
  H  H16  1  0.88690456  0.33492370  0.12040727  1
  H  H17  1  0.99201853  0.18904015  0.81459996  1
  H  H18  1  0.11366424  0.31969953  0.87574735  1
  H  H19  1  0.91418580  0.34110692  0.83670517  1
  H  H20  1  0.45360827  0.68065980  0.63934891  1
  H  H21  1  0.66339467  0.69682508  0.56440673  1
  H  H22  1  0.54996357  0.84082503  0.62575948  1
  H  H23  1  0.35372641  0.77201015  0.39130697  1
  H  H24  1  0.50241668  0.66468135  0.32423098  1
  H  H25  1  0.54482404  0.82709961  0.33158906  1
  H  H26  1  0.96146260  0.70528112  0.83019282  1
  H  H27  1  0.10415994  0.82114307  0.92722778  1
  H  H28  1  0.11399914  0.64909188  0.97310075  1
  H  H29  1  0.82708724  0.82302282  0.06095988  1
  H  H30  1  0.84396666  0.66588771  0.11334017  1
  H  H31  1  0.97329600  0.77942595  0.19772259  1
  B  B32  1  0.36180311  0.06667025  0.98304386  1
  B  B33  1  0.05169846  0.49330293  0.44209780  1
  Mg  Mg34  1  0.92962792  0.99467785  0.50751716  1
  Mg  Mg35  1  0.54605478  0.54464254  0.95535221  1
  Cl  Cl36  1  0.52388151  0.17948501  0.01924939  1
  Cl  Cl37  1  0.24812948  0.00858339  0.15348791  1
  Cl  Cl38  1  0.72067977  0.98615414  0.30757294  1
  Cl  Cl39  1  0.05079829  0.20329760  0.49107739  1
  Cl  Cl40  1  0.30283909  0.02623102  0.77716126  1
  Cl  Cl41  1  0.81127975  0.99896531  0.77486307  1
  Cl  Cl42  1  0.50640316  0.76825294  0.98892164  1
  Cl  Cl43  1  0.66126347  0.50237772  0.21993571  1
  Cl  Cl44  1  0.19434402  0.49207732  0.27070298  1
  Cl  Cl45  1  0.09065488  0.80793513  0.45337317  1
  Cl  Cl46  1  0.32068821  0.44268240  0.81941081  1
  Cl  Cl47  1  0.76402291  0.49491312  0.76973206  1
