# generated using pymatgen
data_BH12C2(NCl2)3
_symmetry_space_group_name_H-M   'P 1'
_cell_length_a   7.74824359
_cell_length_b   9.91234695
_cell_length_c   8.00215271
_cell_angle_alpha   95.19151373
_cell_angle_beta   93.80747849
_cell_angle_gamma   84.47699516
_symmetry_Int_Tables_number   1
_chemical_formula_structural   BH12C2(NCl2)3
_chemical_formula_sum   'B2 H24 C4 N6 Cl12'
_cell_volume   608.19614858
_cell_formula_units_Z   2
loop_
 _symmetry_equiv_pos_site_id
 _symmetry_equiv_pos_as_xyz
  1  'x, y, z'
loop_
 _atom_site_type_symbol
 _atom_site_label
 _atom_site_symmetry_multiplicity
 _atom_site_fract_x
 _atom_site_fract_y
 _atom_site_fract_z
 _atom_site_occupancy
  C  C0  1  0.50515919  0.23934872  0.46162810  1
  C  C1  1  0.88316025  0.24744427  0.04913354  1
  C  C2  1  0.43760427  0.69972361  0.52903205  1
  C  C3  1  0.97491013  0.74841633  0.94316657  1
  N  N4  1  0.57265590  0.24710892  0.64006115  1
  N  N5  1  0.02069942  0.28580129  0.95062808  1
  N  N6  1  0.61728375  0.89970230  0.33607293  1
  N  N7  1  0.99397710  0.74071806  0.12804642  1
  H  H8  1  0.61093018  0.25254433  0.38227559  1
  H  H9  1  0.45892910  0.13889766  0.42817157  1
  H  H10  1  0.40056556  0.31978799  0.44368716  1
  H  H11  1  0.66218115  0.15874897  0.66351986  1
  H  H12  1  0.63394882  0.33457994  0.67076515  1
  H  H13  1  0.47650493  0.25028026  0.72423552  1
  H  H14  1  0.94036989  0.21048657  0.16734114  1
  H  H15  1  0.80971273  0.16632448  0.98251348  1
  H  H16  1  0.79453280  0.33781931  0.08070123  1
  H  H17  1  0.09881231  0.20074333  0.91265602  1
  H  H18  1  0.18270090  0.41433912  0.01940605  1
  H  H19  1  0.96588871  0.32235111  0.84207369  1
  H  H20  1  0.47967815  0.78010955  0.62254777  1
  H  H21  1  0.54553135  0.65585928  0.45199963  1
  H  H22  1  0.68774693  0.92161000  0.44987237  1
  H  H23  1  0.35287500  0.82136356  0.35337845  1
  H  H24  1  0.32745215  0.51799299  0.12233355  1
  H  H25  1  0.65433044  0.79871476  0.29456135  1
  H  H26  1  0.83670301  0.74854319  0.90442868  1
  H  H27  1  0.01877099  0.84353520  0.90966088  1
  H  H28  1  0.05011004  0.66146831  0.88060043  1
  H  H29  1  0.95432166  0.83401557  0.18869877  1
  H  H30  1  0.90689524  0.67132035  0.16423432  1
  H  H31  1  0.11939043  0.71444281  0.17407178  1
  B  B32  1  0.33528398  0.94278735  0.98821804  1
  B  B33  1  0.98600589  0.38962631  0.49587939  1
  N  N34  1  0.29976294  0.74542738  0.40928405  1
  N  N35  1  0.29878663  0.46054976  0.01182975  1
  Cl  Cl36  1  0.45279725  0.32075567  0.02118191  1
  Cl  Cl37  1  0.23025732  0.02941862  0.15903277  1
  Cl  Cl38  1  0.70620425  0.99373228  0.19394698  1
  Cl  Cl39  1  0.01261871  0.21575581  0.52149118  1
  Cl  Cl40  1  0.34984443  0.02255689  0.80520444  1
  Cl  Cl41  1  0.79646409  0.98595575  0.69328939  1
  Cl  Cl42  1  0.41163745  0.77384907  0.99525447  1
  Cl  Cl43  1  0.70009739  0.58290299  0.20108783  1
  Cl  Cl44  1  0.09734940  0.45383179  0.34657798  1
  Cl  Cl45  1  0.11913364  0.83312030  0.51161220  1
  Cl  Cl46  1  0.38013968  0.56839983  0.64863611  1
  Cl  Cl47  1  0.84930821  0.49726635  0.62626680  1
