# generated using pymatgen
data_H12PbC3(NCl3)2
_symmetry_space_group_name_H-M   'P 1'
_cell_length_a   7.92426051
_cell_length_b   10.91899773
_cell_length_c   7.56898451
_cell_angle_alpha   90.09331450
_cell_angle_beta   89.98417377
_cell_angle_gamma   90.01250197
_symmetry_Int_Tables_number   1
_chemical_formula_structural   H12PbC3(NCl3)2
_chemical_formula_sum   'H24 Pb2 C6 N4 Cl12'
_cell_volume   654.90534373
_cell_formula_units_Z   2
loop_
 _symmetry_equiv_pos_site_id
 _symmetry_equiv_pos_as_xyz
  1  'x, y, z'
loop_
 _atom_site_type_symbol
 _atom_site_label
 _atom_site_symmetry_multiplicity
 _atom_site_fract_x
 _atom_site_fract_y
 _atom_site_fract_z
 _atom_site_occupancy
  C  C0  1  0.43406991  0.26306439  0.44378168  1
  C  C1  1  0.93584463  0.23786691  0.05622997  1
  C  C2  1  0.57799163  0.75192088  0.58211636  1
  C  C3  1  0.07735487  0.74778964  0.91834014  1
  N  N4  1  0.58276702  0.25016886  0.56190395  1
  N  N5  1  0.08345825  0.24899724  0.93615408  1
  N  N6  1  0.40805328  0.75028025  0.50005503  1
  N  N7  1  0.90782402  0.75043861  0.00138740  1
  H  H8  1  0.47625451  0.26051328  0.30615287  1
  H  H9  1  0.34941132  0.18605413  0.46895235  1
  H  H10  1  0.36969988  0.34898934  0.47503201  1
  H  H11  1  0.64143391  0.16687912  0.54311297  1
  H  H12  1  0.67294564  0.31688540  0.53955158  1
  H  H13  1  0.54858912  0.25422490  0.69600271  1
  H  H14  1  0.97957424  0.24046102  0.19328591  1
  H  H15  1  0.86958436  0.15245302  0.02641009  1
  H  H16  1  0.85234658  0.31559950  0.03158369  1
  H  H17  1  0.17231128  0.18119182  0.95745900  1
  H  H18  1  0.14435941  0.33154375  0.95381585  1
  H  H19  1  0.04769457  0.24516904  0.80251059  1
  H  H20  1  0.56197227  0.76204050  0.72498577  1
  H  H21  1  0.64404037  0.66674134  0.55117275  1
  H  H22  1  0.64707523  0.83096587  0.53154088  1
  H  H23  1  0.34346018  0.82919003  0.54032014  1
  H  H24  1  0.34159914  0.67342594  0.54310061  1
  H  H25  1  0.41585986  0.75013638  0.36299561  1
  H  H26  1  0.06053169  0.73675673  0.77571658  1
  H  H27  1  0.14406272  0.83295910  0.94778842  1
  H  H28  1  0.14618608  0.66885719  0.96955920  1
  H  H29  1  0.84186218  0.82753200  0.95846817  1
  H  H30  1  0.84241291  0.67178665  0.96159966  1
  H  H31  1  0.91624566  0.75063424  0.13840719  1
  C  C32  1  0.48846358  0.97064782  0.08250711  1
  C  C33  1  0.98959614  0.52865120  0.41742043  1
  Pb  Pb34  1  0.00284568  0.99924424  0.50528763  1
  Pb  Pb35  1  0.50392012  0.50029856  0.99504725  1
  Cl  Cl36  1  0.49195724  0.25927835  0.96652241  1
  Cl  Cl37  1  0.27154465  0.00419193  0.17482321  1
  Cl  Cl38  1  0.63900792  0.00896399  0.26819649  1
  Cl  Cl39  1  0.99079225  0.24034814  0.53236734  1
  Cl  Cl40  1  0.28532377  0.99229418  0.68710450  1
  Cl  Cl41  1  0.80534804  0.98820881  0.78634804  1
  Cl  Cl42  1  0.49449743  0.78932172  0.08415582  1
  Cl  Cl43  1  0.77266417  0.49515250  0.32493429  1
  Cl  Cl44  1  0.14022457  0.49098391  0.23170359  1
  Cl  Cl45  1  0.99522561  0.71006695  0.41664779  1
  Cl  Cl46  1  0.30560914  0.51231451  0.71470648  1
  Cl  Cl47  1  0.78612670  0.50859444  0.81303101  1
