# generated using pymatgen
data_HgH12C3(NCl3)2
_symmetry_space_group_name_H-M   'P 1'
_cell_length_a   7.01513799
_cell_length_b   11.48717342
_cell_length_c   7.94879264
_cell_angle_alpha   91.91269650
_cell_angle_beta   89.92682117
_cell_angle_gamma   89.97715279
_symmetry_Int_Tables_number   1
_chemical_formula_structural   HgH12C3(NCl3)2
_chemical_formula_sum   'Hg2 H24 C6 N4 Cl12'
_cell_volume   640.18888574
_cell_formula_units_Z   2
loop_
 _symmetry_equiv_pos_site_id
 _symmetry_equiv_pos_as_xyz
  1  'x, y, z'
loop_
 _atom_site_type_symbol
 _atom_site_label
 _atom_site_symmetry_multiplicity
 _atom_site_fract_x
 _atom_site_fract_y
 _atom_site_fract_z
 _atom_site_occupancy
  C  C0  1  0.53541735  0.26289656  0.41681407  1
  C  C1  1  0.90054671  0.25326064  0.11813279  1
  C  C2  1  0.59915714  0.75334985  0.61841452  1
  C  C3  1  0.96503877  0.76265806  0.91616567  1
  N  N4  1  0.47681607  0.26724855  0.59637582  1
  N  N5  1  0.93096130  0.23802261  0.93335445  1
  N  N6  1  0.56917909  0.73831003  0.43362499  1
  N  N7  1  0.02319490  0.76684870  0.09570849  1
  H  H8  1  0.68722870  0.24159292  0.41016992  1
  H  H9  1  0.45224180  0.19551572  0.34964544  1
  H  H10  1  0.50703534  0.34820535  0.36416586  1
  H  H11  1  0.52390495  0.19353205  0.65760807  1
  H  H12  1  0.53395161  0.34059126  0.65825209  1
  H  H13  1  0.32770028  0.27004394  0.60379048  1
  H  H14  1  0.03767047  0.26565145  0.18138195  1
  H  H15  1  0.83482278  0.17433989  0.16523076  1
  H  H16  1  0.80997659  0.32956614  0.14215502  1
  H  H17  1  0.83822311  0.17541029  0.87973299  1
  H  H18  1  0.06603389  0.20731277  0.90624434  1
  H  H19  1  0.90697954  0.31545426  0.87178111  1
  H  H20  1  0.46190535  0.76595078  0.68171804  1
  H  H21  1  0.66448709  0.67427719  0.66538076  1
  H  H22  1  0.68991030  0.82948562  0.64252875  1
  H  H23  1  0.43405746  0.70793189  0.40645539  1
  H  H24  1  0.66178940  0.67554732  0.37986619  1
  H  H25  1  0.59362829  0.81575776  0.37217881  1
  H  H26  1  0.81337344  0.74110427  0.90951382  1
  H  H27  1  0.99299844  0.84810625  0.86378520  1
  H  H28  1  0.04878566  0.69552762  0.84874556  1
  H  H29  1  0.96593184  0.84018713  0.15769558  1
  H  H30  1  0.97593446  0.69311583  0.15686472  1
  H  H31  1  0.17229486  0.76956446  0.10314445  1
  C  C32  1  0.09954824  0.92378623  0.57630528  1
  C  C33  1  0.39925294  0.42379932  0.07694455  1
  Hg  Hg34  1  0.51967454  0.95389175  0.03265979  1
  Hg  Hg35  1  0.98035554  0.45397195  0.53214050  1
  Cl  Cl36  1  0.41834797  0.27901151  0.00391751  1
  Cl  Cl37  1  0.18822196  0.03011044  0.05364783  1
  Cl  Cl38  1  0.74839656  0.96857363  0.28184156  1
  Cl  Cl39  1  0.03396928  0.23535562  0.54122445  1
  Cl  Cl40  1  0.29161973  0.98430455  0.48085188  1
  Cl  Cl41  1  0.66296588  0.04675818  0.77699285  1
  Cl  Cl42  1  0.46652484  0.73521504  0.04172286  1
  Cl  Cl43  1  0.83687146  0.54657340  0.27678287  1
  Cl  Cl44  1  0.20852267  0.48423563  0.97970835  1
  Cl  Cl45  1  0.08152118  0.77906815  0.50285472  1
  Cl  Cl46  1  0.31142752  0.53052307  0.55405303  1
  Cl  Cl47  1  0.75162644  0.46853264  0.78202244  1
