# generated using pymatgen
data_H12PtC3(NCl3)2
_symmetry_space_group_name_H-M   'P 1'
_cell_length_a   7.38271413
_cell_length_b   9.51607891
_cell_length_c   8.79775040
_cell_angle_alpha   77.23010252
_cell_angle_beta   90.00162942
_cell_angle_gamma   90.02201986
_symmetry_Int_Tables_number   1
_chemical_formula_structural   H12PtC3(NCl3)2
_chemical_formula_sum   'H24 Pt2 C6 N4 Cl12'
_cell_volume   602.79356050
_cell_formula_units_Z   2
loop_
 _symmetry_equiv_pos_site_id
 _symmetry_equiv_pos_as_xyz
  1  'x, y, z'
loop_
 _atom_site_type_symbol
 _atom_site_label
 _atom_site_symmetry_multiplicity
 _atom_site_fract_x
 _atom_site_fract_y
 _atom_site_fract_z
 _atom_site_occupancy
  C  C0  1  0.46763236  0.18073709  0.40647395  1
  C  C1  1  0.02696179  0.27824973  0.05207261  1
  C  C2  1  0.47374205  0.77825032  0.55203574  1
  C  C3  1  0.03331415  0.68034937  0.90664254  1
  N  N4  1  0.51337282  0.24644748  0.53969273  1
  N  N5  1  0.98869097  0.21210203  0.91773116  1
  N  N6  1  0.51032287  0.71225922  0.41728527  1
  N  N7  1  0.98604815  0.74678846  0.03896522  1
  H  H8  1  0.58992038  0.13375678  0.36800264  1
  H  H9  1  0.36500943  0.09702664  0.44390297  1
  H  H10  1  0.41372389  0.26494288  0.31242829  1
  H  H11  1  0.56036372  0.16859731  0.63370630  1
  H  H12  1  0.61339906  0.32410681  0.51107313  1
  H  H13  1  0.40258727  0.29763560  0.57795700  1
  H  H14  1  0.13430022  0.35882435  0.01949642  1
  H  H15  1  0.07144543  0.19358190  0.14988069  1
  H  H16  1  0.90362018  0.32930174  0.08270706  1
  H  H17  1  0.10150821  0.16053355  0.88341446  1
  H  H18  1  0.94562924  0.28998291  0.82212576  1
  H  H19  1  0.88780368  0.13479927  0.94263640  1
  H  H20  1  0.36551168  0.85815690  0.52074831  1
  H  H21  1  0.43133174  0.69334426  0.65044397  1
  H  H22  1  0.59725382  0.83014914  0.58105856  1
  H  H23  1  0.55152047  0.79038982  0.32121989  1
  H  H24  1  0.39728169  0.66002491  0.38425016  1
  H  H25  1  0.61196725  0.63558053  0.44081842  1
  H  H26  1  0.91132958  0.63378060  0.86704181  1
  H  H27  1  0.08897794  0.76404085  0.81292360  1
  H  H28  1  0.13501883  0.59625382  0.94545894  1
  H  H29  1  0.88693172  0.82494764  0.00874441  1
  H  H30  1  0.93721987  0.66943702  0.13269848  1
  H  H31  1  0.09659846  0.79753662  0.07825740  1
  C  C32  1  0.09589173  0.97800294  0.48107932  1
  C  C33  1  0.40469522  0.47779757  0.98088603  1
  Pt  Pt34  1  0.49254141  0.97912027  0.97978856  1
  Pt  Pt35  1  0.00705480  0.47917720  0.47957563  1
  Cl  Cl36  1  0.53303828  0.32425666  0.00518822  1
  Cl  Cl37  1  0.26968253  0.94925151  0.16928769  1
  Cl  Cl38  1  0.96373347  0.12985807  0.45528591  1
  Cl  Cl39  1  0.78304604  0.46500578  0.66820280  1
  Cl  Cl40  1  0.27187956  0.01092710  0.78854020  1
  Cl  Cl41  1  0.71751241  0.99241970  0.79224017  1
  Cl  Cl42  1  0.71675579  0.96526974  0.16820871  1
  Cl  Cl43  1  0.78199815  0.49292283  0.29207627  1
  Cl  Cl44  1  0.22754527  0.51082816  0.28818666  1
  Cl  Cl45  1  0.96750699  0.82438216  0.50551111  1
  Cl  Cl46  1  0.22995035  0.44923745  0.66904157  1
  Cl  Cl47  1  0.53685281  0.62970561  0.95530348  1
