# generated using pymatgen
data_H12OsC3(NCl3)2
_symmetry_space_group_name_H-M   'P 1'
_cell_length_a   7.25459483
_cell_length_b   9.67773053
_cell_length_c   8.43240297
_cell_angle_alpha   77.48578298
_cell_angle_beta   84.16806010
_cell_angle_gamma   91.38173406
_symmetry_Int_Tables_number   1
_chemical_formula_structural   H12OsC3(NCl3)2
_chemical_formula_sum   'H24 Os2 C6 N4 Cl12'
_cell_volume   574.31680381
_cell_formula_units_Z   2
loop_
 _symmetry_equiv_pos_site_id
 _symmetry_equiv_pos_as_xyz
  1  'x, y, z'
loop_
 _atom_site_type_symbol
 _atom_site_label
 _atom_site_symmetry_multiplicity
 _atom_site_fract_x
 _atom_site_fract_y
 _atom_site_fract_z
 _atom_site_occupancy
  C  C0  1  0.46275998  0.20841766  0.41980423  1
  C  C1  1  0.99563887  0.28813247  0.09698929  1
  C  C2  1  0.51159562  0.79219019  0.58841687  1
  C  C3  1  0.98293904  0.73256538  0.89452692  1
  N  N4  1  0.52577639  0.27541802  0.54808151  1
  N  N5  1  0.01565347  0.23263586  0.94592873  1
  N  N6  1  0.50095802  0.72943008  0.44369688  1
  N  N7  1  0.00285724  0.77089115  0.05282347  1
  H  H8  1  0.58184701  0.16282901  0.36260178  1
  H  H9  1  0.35561681  0.12647983  0.47658644  1
  H  H10  1  0.40428705  0.29018041  0.33044815  1
  H  H11  1  0.58762298  0.20246949  0.63464146  1
  H  H12  1  0.62419814  0.35619894  0.49459912  1
  H  H13  1  0.41649672  0.32010941  0.60600160  1
  H  H14  1  0.12614560  0.34222626  0.10874997  1
  H  H15  1  0.96026914  0.20089559  0.20289814  1
  H  H16  1  0.88528752  0.36357977  0.08937485  1
  H  H17  1  0.11254294  0.15465291  0.94541896  1
  H  H18  1  0.06302611  0.31287572  0.84481298  1
  H  H19  1  0.89440718  0.18635186  0.92083325  1
  H  H20  1  0.38558014  0.84873857  0.60876335  1
  H  H21  1  0.52305138  0.70786573  0.69611992  1
  H  H22  1  0.63257461  0.86633360  0.56588058  1
  H  H23  1  0.50504715  0.80683107  0.33693661  1
  H  H24  1  0.38305580  0.66427530  0.45280604  1
  H  H25  1  0.61116670  0.66606835  0.42249273  1
  H  H26  1  0.83550083  0.71214207  0.88701227  1
  H  H27  1  0.03849296  0.82169193  0.79687208  1
  H  H28  1  0.06177865  0.63842565  0.88833887  1
  H  H29  1  0.92967820  0.85984703  0.06622333  1
  H  H30  1  0.94805569  0.68859645  0.14852070  1
  H  H31  1  0.14123320  0.78854830  0.06567540  1
  C  C32  1  0.05169357  0.91310234  0.44622202  1
  C  C33  1  0.55000006  0.41744400  0.93995677  1
  Os  Os34  1  0.50194064  0.00937811  0.00261334  1
  Os  Os35  1  0.00522443  0.50377471  0.49742234  1
  Cl  Cl36  1  0.47803340  0.24030077  0.01613185  1
  Cl  Cl37  1  0.21542152  0.97074158  0.26383262  1
  Cl  Cl38  1  0.73060336  0.97964349  0.19374962  1
  Cl  Cl39  1  1.00006716  0.26138457  0.51681400  1
  Cl  Cl40  1  0.27556246  0.02664750  0.81317777  1
  Cl  Cl41  1  0.73736087  0.05003497  0.78885189  1
  Cl  Cl42  1  0.49306508  0.76624169  0.01865523  1
  Cl  Cl43  1  0.77356839  0.52151217  0.30909330  1
  Cl  Cl44  1  0.23681075  0.54311263  0.28075257  1
  Cl  Cl45  1  0.98005285  0.73440754  0.51374536  1
  Cl  Cl46  1  0.23439599  0.47912255  0.68794314  1
  Cl  Cl47  1  0.73108206  0.46533557  0.76845826  1
