# generated using pymatgen
data_HfH12C3(NCl3)2
_symmetry_space_group_name_H-M   'P 1'
_cell_length_a   8.30942973
_cell_length_b   9.09756527
_cell_length_c   8.63103749
_cell_angle_alpha   75.08354456
_cell_angle_beta   89.99407315
_cell_angle_gamma   89.98332214
_symmetry_Int_Tables_number   1
_chemical_formula_structural   HfH12C3(NCl3)2
_chemical_formula_sum   'Hf2 H24 C6 N4 Cl12'
_cell_volume   630.48150054
_cell_formula_units_Z   2
loop_
 _symmetry_equiv_pos_site_id
 _symmetry_equiv_pos_as_xyz
  1  'x, y, z'
loop_
 _atom_site_type_symbol
 _atom_site_label
 _atom_site_symmetry_multiplicity
 _atom_site_fract_x
 _atom_site_fract_y
 _atom_site_fract_z
 _atom_site_occupancy
  C  C0  1  0.44785366  0.26298613  0.40438859  1
  C  C1  1  0.02129794  0.27406802  0.11882037  1
  C  C2  1  0.47844131  0.77406274  0.61867484  1
  C  C3  1  0.05239444  0.76304736  0.90465293  1
  N  N4  1  0.58382088  0.21381785  0.51185322  1
  N  N5  1  0.05634529  0.22040000  0.97359872  1
  N  N6  1  0.44348582  0.72042333  0.47343228  1
  N  N7  1  0.91632948  0.71377214  0.01195282  1
  H  H8  1  0.45672855  0.23287257  0.28897762  1
  H  H9  1  0.33634782  0.21270312  0.46313181  1
  H  H10  1  0.43508737  0.38701878  0.37788968  1
  H  H11  1  0.58480852  0.09855558  0.55633606  1
  H  H12  1  0.69065803  0.24215152  0.45335756  1
  H  H13  1  0.58450894  0.32832607  0.70070755  1
  H  H14  1  0.12863621  0.32996622  0.15001270  1
  H  H15  1  0.99089892  0.17256500  0.21466676  1
  H  H16  1  0.91990060  0.35347666  0.09319262  1
  H  H17  1  0.14381515  0.13649531  0.99992669  1
  H  H18  1  0.09832167  0.30756374  0.87918583  1
  H  H19  1  0.95549380  0.17313738  0.93400961  1
  H  H20  1  0.37105511  0.82995180  0.64986372  1
  H  H21  1  0.50888428  0.67254960  0.71451027  1
  H  H22  1  0.57978746  0.85348096  0.59306438  1
  H  H23  1  0.40152775  0.80760768  0.37901379  1
  H  H24  1  0.35603851  0.63654410  0.49968959  1
  H  H25  1  0.54438271  0.67314137  0.43387200  1
  H  H26  1  0.04355739  0.73332569  0.78903606  1
  H  H27  1  0.06525870  0.88704663  0.87856137  1
  H  H28  1  0.16383234  0.71249992  0.96333735  1
  H  H29  1  0.80954552  0.74213977  0.95340886  1
  H  H30  1  0.91542002  0.59847635  0.05632884  1
  H  H31  1  0.91555935  0.82826172  0.20079795  1
  C  C32  1  0.92238830  0.91848589  0.26738533  1
  C  C33  1  0.57756714  0.41851660  0.76733533  1
  Hf  Hf34  1  0.52164482  0.00198472  0.00082273  1
  Hf  Hf35  1  0.97837736  0.50197571  0.50098194  1
  Cl  Cl36  1  0.54469278  0.30448810  0.97797995  1
  Cl  Cl37  1  0.31402533  0.00551789  0.20000113  1
  Cl  Cl38  1  0.69673095  0.97270560  0.26258749  1
  Cl  Cl39  1  0.99455534  0.23844744  0.53179300  1
  Cl  Cl40  1  0.33416541  0.07022852  0.78981988  1
  Cl  Cl41  1  0.76476147  0.04194008  0.84938031  1
  Cl  Cl42  1  0.50556786  0.73845933  0.03161993  1
  Cl  Cl43  1  0.73532341  0.54199176  0.34944124  1
  Cl  Cl44  1  0.16590230  0.57011784  0.28999093  1
  Cl  Cl45  1  0.95522957  0.80450384  0.47806142  1
  Cl  Cl46  1  0.18589500  0.50551299  0.70019007  1
  Cl  Cl47  1  0.80317314  0.47276680  0.76265349  1
