# generated using pymatgen
data_BH12C2(I2N)3
_symmetry_space_group_name_H-M   'P 1'
_cell_length_a   8.60605750
_cell_length_b   10.99350962
_cell_length_c   8.60333737
_cell_angle_alpha   93.73673827
_cell_angle_beta   90.70861869
_cell_angle_gamma   83.75753061
_symmetry_Int_Tables_number   1
_chemical_formula_structural   BH12C2(I2N)3
_chemical_formula_sum   'B2 H24 C4 I12 N6'
_cell_volume   807.41046087
_cell_formula_units_Z   2
loop_
 _symmetry_equiv_pos_site_id
 _symmetry_equiv_pos_as_xyz
  1  'x, y, z'
loop_
 _atom_site_type_symbol
 _atom_site_label
 _atom_site_symmetry_multiplicity
 _atom_site_fract_x
 _atom_site_fract_y
 _atom_site_fract_z
 _atom_site_occupancy
  C  C0  1  0.51114062  0.24387869  0.53156950  1
  C  C1  1  0.90763010  0.30960984  0.95245410  1
  C  C2  1  0.37374073  0.71082957  0.50721564  1
  C  C3  1  0.01613901  0.67616946  0.97852705  1
  N  N4  1  0.58000943  0.26797480  0.68892882  1
  N  N5  1  0.06305032  0.34000588  0.90989400  1
  N  N6  1  0.57137255  0.90729752  0.37995748  1
  N  N7  1  0.00993720  0.72343581  0.14465130  1
  H  H8  1  0.59497184  0.26053358  0.44278404  1
  H  H9  1  0.48708853  0.14792804  0.51716333  1
  H  H10  1  0.40378833  0.30542861  0.51749427  1
  H  H11  1  0.63884334  0.18735112  0.72788590  1
  H  H12  1  0.66120329  0.33054359  0.68372813  1
  H  H13  1  0.49850748  0.30782754  0.77728316  1
  H  H14  1  0.90491893  0.29270434  0.07677386  1
  H  H15  1  0.87211458  0.22721467  0.88662387  1
  H  H16  1  0.82021280  0.38821498  0.93554425  1
  H  H17  1  0.13564601  0.25969181  0.89366579  1
  H  H18  1  0.29830962  0.38621652  0.97332053  1
  H  H19  1  0.05589965  0.37606363  0.80277807  1
  H  H20  1  0.40885843  0.78098454  0.59416437  1
  H  H21  1  0.47407870  0.66941314  0.43618692  1
  H  H22  1  0.63021645  0.91339281  0.48610858  1
  H  H23  1  0.27934839  0.82473922  0.35658365  1
  H  H24  1  0.46192087  0.45554462  0.99832748  1
  H  H25  1  0.59320139  0.81610783  0.33880810  1
  H  H26  1  0.89656971  0.68736169  0.93233940  1
  H  H27  1  0.09131880  0.72790163  0.91252058  1
  H  H28  1  0.06001708  0.57851650  0.97248011  1
  H  H29  1  0.97917686  0.81722648  0.15437722  1
  H  H30  1  0.92081379  0.68343184  0.19874286  1
  H  H31  1  0.11369225  0.70599769  0.20877768  1
  B  B32  1  0.28117544  0.96380374  0.96255666  1
  B  B33  1  0.96513752  0.38951962  0.47236322  1
  N  N34  1  0.24427357  0.74909046  0.40707859  1
  N  N35  1  0.41754663  0.37691295  0.95217079  1
  I  I36  1  0.51750432  0.23686862  0.09414294  1
  I  I37  1  0.13515113  0.04645581  0.14825922  1
  I  I38  1  0.70763417  0.99174261  0.23136729  1
  I  I39  1  0.95680751  0.20182776  0.51527957  1
  I  I40  1  0.29581925  0.05222776  0.75234755  1
  I  I41  1  0.76704511  0.95468160  0.75986055  1
  I  I42  1  0.41643299  0.79602311  0.99737443  1
  I  I43  1  0.66971386  0.58207230  0.18363668  1
  I  I44  1  0.11633003  0.42971953  0.29633253  1
  I  I45  1  0.03941627  0.83201073  0.54279191  1
  I  I46  1  0.33334975  0.56280385  0.65541644  1
  I  I47  1  0.82294908  0.52477984  0.61165822  1
