# generated using pymatgen
data_BaH12C3(NCl3)2
_symmetry_space_group_name_H-M   'P 1'
_cell_length_a   7.88862754
_cell_length_b   11.22934497
_cell_length_c   7.64177464
_cell_angle_alpha   88.62923270
_cell_angle_beta   89.96835602
_cell_angle_gamma   90.00282515
_symmetry_Int_Tables_number   1
_chemical_formula_structural   BaH12C3(NCl3)2
_chemical_formula_sum   'Ba2 H24 C6 N4 Cl12'
_cell_volume   676.74605349
_cell_formula_units_Z   2
loop_
 _symmetry_equiv_pos_site_id
 _symmetry_equiv_pos_as_xyz
  1  'x, y, z'
loop_
 _atom_site_type_symbol
 _atom_site_label
 _atom_site_symmetry_multiplicity
 _atom_site_fract_x
 _atom_site_fract_y
 _atom_site_fract_z
 _atom_site_occupancy
  C  C0  1  0.44816789  0.27046986  0.48382721  1
  C  C1  1  0.94826658  0.23024534  0.01549250  1
  C  C2  1  0.58365401  0.74027989  0.59061243  1
  C  C3  1  0.08354427  0.76027065  0.90906391  1
  N  N4  1  0.57547979  0.22330349  0.61077334  1
  N  N5  1  0.07739309  0.27453071  0.88815743  1
  N  N6  1  0.40395258  0.74938276  0.53614386  1
  N  N7  1  0.90447247  0.75133428  0.96592564  1
  H  H8  1  0.49222166  0.25494413  0.35026770  1
  H  H9  1  0.32856311  0.22295395  0.50584213  1
  H  H10  1  0.42783787  0.36532947  0.50705708  1
  H  H11  1  0.57733529  0.13100408  0.61343453  1
  H  H12  1  0.69844234  0.25231718  0.58125302  1
  H  H13  1  0.54541154  0.24576616  0.73987474  1
  H  H14  1  0.99323028  0.24473949  0.14895041  1
  H  H15  1  0.92354203  0.13589243  0.99225975  1
  H  H16  1  0.83097985  0.28051872  0.99365498  1
  H  H17  1  0.19899953  0.24287847  0.91725818  1
  H  H18  1  0.08392657  0.36673047  0.88543523  1
  H  H19  1  0.04573893  0.25275924  0.75921491  1
  H  H20  1  0.59009521  0.75607951  0.73119674  1
  H  H21  1  0.63365801  0.65220324  0.56132439  1
  H  H22  1  0.65557307  0.80993349  0.52153006  1
  H  H23  1  0.35438653  0.83065308  0.58151373  1
  H  H24  1  0.33606283  0.67619172  0.58945011  1
  H  H25  1  0.39391005  0.74981706  0.40103030  1
  H  H26  1  0.08820750  0.74441740  0.76839696  1
  H  H27  1  0.13411134  0.84831081  0.93766094  1
  H  H28  1  0.15611104  0.69053267  0.97710060  1
  H  H29  1  0.83621366  0.82452851  0.91325457  1
  H  H30  1  0.85439230  0.67008627  0.92098671  1
  H  H31  1  0.89595087  0.75085582  0.10117351  1
  C  C32  1  0.49344966  0.96359265  0.09465972  1
  C  C33  1  0.99397566  0.53585682  0.40500556  1
  Ba  Ba34  1  0.99943798  0.99360017  0.47127842  1
  Ba  Ba35  1  0.50021868  0.50613590  0.02887814  1
  Cl  Cl36  1  0.46744245  0.24975730  0.00258013  1
  Cl  Cl37  1  0.27079434  0.99662347  0.16214013  1
  Cl  Cl38  1  0.62474092  0.00935574  0.28646125  1
  Cl  Cl39  1  0.96546215  0.25002638  0.49719165  1
  Cl  Cl40  1  0.30618933  0.99497481  0.67979064  1
  Cl  Cl41  1  0.78488664  0.98291286  0.78046146  1
  Cl  Cl42  1  0.50236593  0.77697274  0.12159544  1
  Cl  Cl43  1  0.77108435  0.50392747  0.33822919  1
  Cl  Cl44  1  0.12432024  0.49058260  0.21240547  1
  Cl  Cl45  1  0.00395384  0.72309791  0.37958439  1
  Cl  Cl46  1  0.28494186  0.51687702  0.72042069  1
  Cl  Cl47  1  0.80692762  0.50652409  0.82049669  1
