# generated using pymatgen
data_SnH12C3(NCl3)2
_symmetry_space_group_name_H-M   'P 1'
_cell_length_a   7.87494160
_cell_length_b   10.85416144
_cell_length_c   7.60110371
_cell_angle_alpha   90.22657953
_cell_angle_beta   89.87840953
_cell_angle_gamma   89.98223756
_symmetry_Int_Tables_number   1
_chemical_formula_structural   SnH12C3(NCl3)2
_chemical_formula_sum   'Sn2 H24 C6 N4 Cl12'
_cell_volume   649.70450935
_cell_formula_units_Z   2
loop_
 _symmetry_equiv_pos_site_id
 _symmetry_equiv_pos_as_xyz
  1  'x, y, z'
loop_
 _atom_site_type_symbol
 _atom_site_label
 _atom_site_symmetry_multiplicity
 _atom_site_fract_x
 _atom_site_fract_y
 _atom_site_fract_z
 _atom_site_occupancy
  C  C0  1  0.42569272  0.26405643  0.42790217  1
  C  C1  1  0.92759279  0.23728992  0.07300574  1
  C  C2  1  0.58113159  0.75717613  0.58337432  1
  C  C3  1  0.08070951  0.74233178  0.91739816  1
  N  N4  1  0.57716442  0.25543732  0.54350660  1
  N  N5  1  0.07760314  0.24413658  0.95463785  1
  N  N6  1  0.41706115  0.75379964  0.48785884  1
  N  N7  1  0.91667540  0.74727083  0.01376524  1
  H  H8  1  0.46739286  0.26435378  0.29049545  1
  H  H9  1  0.34610803  0.18348672  0.45208658  1
  H  H10  1  0.35592018  0.34803251  0.46114341  1
  H  H11  1  0.64241807  0.17465330  0.52022599  1
  H  H12  1  0.66169028  0.32686742  0.52214558  1
  H  H13  1  0.54388420  0.25653966  0.67726036  1
  H  H14  1  0.97094228  0.23754264  0.20962871  1
  H  H15  1  0.85615475  0.15367890  0.04210059  1
  H  H16  1  0.84878879  0.31839575  0.04933330  1
  H  H17  1  0.16076602  0.17154530  0.97430465  1
  H  H18  1  0.14522306  0.32397402  0.97691112  1
  H  H19  1  0.04276693  0.24356633  0.82153550  1
  H  H20  1  0.55428494  0.76855445  0.72382526  1
  H  H21  1  0.64996463  0.67132839  0.55918516  1
  H  H22  1  0.65414291  0.83612453  0.53668433  1
  H  H23  1  0.34766541  0.83253934  0.52018800  1
  H  H24  1  0.34787617  0.67685649  0.52652136  1
  H  H25  1  0.43473351  0.75171559  0.35209646  1
  H  H26  1  0.05363408  0.72983823  0.77730185  1
  H  H27  1  0.15025643  0.82799397  0.93981561  1
  H  H28  1  0.15302662  0.66342500  0.96511560  1
  H  H29  1  0.84839027  0.82455834  0.97495283  1
  H  H30  1  0.84645008  0.66895465  0.98224301  1
  H  H31  1  0.93450684  0.74950571  0.14943317  1
  C  C32  1  0.48598392  0.97132644  0.07911202  1
  C  C33  1  0.98887482  0.52644667  0.41931976  1
  Sn  Sn34  1  0.00193098  0.00316769  0.52137640  1
  Sn  Sn35  1  0.50350149  0.49670656  0.97838033  1
  Cl  Cl36  1  0.49066452  0.26333071  0.95048227  1
  Cl  Cl37  1  0.26735732  0.99957090  0.17649408  1
  Cl  Cl38  1  0.63871513  0.00813174  0.26410532  1
  Cl  Cl39  1  0.98952982  0.23643370  0.54849151  1
  Cl  Cl40  1  0.28006754  0.99547410  0.68474618  1
  Cl  Cl41  1  0.82059759  0.98811914  0.79580526  1
  Cl  Cl42  1  0.49751426  0.79092799  0.07418618  1
  Cl  Cl43  1  0.77027159  0.49840176  0.32267071  1
  Cl  Cl44  1  0.14187893  0.49126937  0.23307810  1
  Cl  Cl45  1  0.99904880  0.70664079  0.42674040  1
  Cl  Cl46  1  0.32176815  0.51270466  0.70502956  1
  Cl  Cl47  1  0.78170079  0.50589640  0.81429569  1
