# generated using pymatgen
data_InH12C3(NCl3)2
_symmetry_space_group_name_H-M   'P 1'
_cell_length_a   7.53527202
_cell_length_b   10.67642062
_cell_length_c   8.09899564
_cell_angle_alpha   86.50168141
_cell_angle_beta   89.63245240
_cell_angle_gamma   91.11901116
_symmetry_Int_Tables_number   1
_chemical_formula_structural   InH12C3(NCl3)2
_chemical_formula_sum   'In2 H24 C6 N4 Cl12'
_cell_volume   650.20499577
_cell_formula_units_Z   2
loop_
 _symmetry_equiv_pos_site_id
 _symmetry_equiv_pos_as_xyz
  1  'x, y, z'
loop_
 _atom_site_type_symbol
 _atom_site_label
 _atom_site_symmetry_multiplicity
 _atom_site_fract_x
 _atom_site_fract_y
 _atom_site_fract_z
 _atom_site_occupancy
  C  C0  1  0.43021603  0.21762891  0.43736460  1
  C  C1  1  0.01224146  0.25022193  0.05835117  1
  C  C2  1  0.50658712  0.76727335  0.60414823  1
  C  C3  1  0.03080046  0.76377834  0.91121241  1
  N  N4  1  0.57578015  0.22247994  0.55739327  1
  N  N5  1  0.05130621  0.23587234  0.88118469  1
  N  N6  1  0.44887912  0.76514467  0.42907767  1
  N  N7  1  0.96022768  0.77712275  0.08039575  1
  H  H8  1  0.46940507  0.15991082  0.33615706  1
  H  H9  1  0.31319559  0.17508159  0.50008337  1
  H  H10  1  0.40219515  0.31309091  0.38844873  1
  H  H11  1  0.59546849  0.13653055  0.62131079  1
  H  H12  1  0.69672687  0.24744597  0.50170289  1
  H  H13  1  0.55133831  0.28823004  0.65162497  1
  H  H14  1  0.12829440  0.29052638  0.11738547  1
  H  H15  1  0.97936548  0.15800749  0.11803207  1
  H  H16  1  0.89949671  0.31242614  0.06931146  1
  H  H17  1  0.15594044  0.17360956  0.86297596  1
  H  H18  1  0.08212580  0.32079424  0.81761757  1
  H  H19  1  0.94333957  0.19160133  0.82632823  1
  H  H20  1  0.38865734  0.76656480  0.68339406  1
  H  H21  1  0.58612219  0.68451881  0.63403088  1
  H  H22  1  0.58539317  0.85296546  0.61925600  1
  H  H23  1  0.36667721  0.83974666  0.39571526  1
  H  H24  1  0.37803709  0.68413508  0.40560069  1
  H  H25  1  0.55326361  0.77002166  0.34478819  1
  H  H26  1  0.97486684  0.67778203  0.86455759  1
  H  H27  1  0.99173821  0.84534828  0.83282168  1
  H  H28  1  0.17560093  0.75850001  0.91666153  1
  H  H29  1  0.82044184  0.77716598  0.08025439  1
  H  H30  1  0.00249612  0.70423420  0.15969750  1
  H  H31  1  0.00747650  0.85930144  0.12769345  1
  C  C32  1  0.99582843  0.95386165  0.45359013  1
  C  C33  1  0.55061992  0.37706438  0.82886620  1
  In  In34  1  0.51766078  0.01123787  0.03193961  1
  In  In35  1  0.00674198  0.47976186  0.45215787  1
  Cl  Cl36  1  0.48101188  0.30591120  0.01386900  1
  Cl  Cl37  1  0.18450827  0.97991076  0.28234034  1
  Cl  Cl38  1  0.78531712  0.98187152  0.33093359  1
  Cl  Cl39  1  0.98586051  0.25350611  0.47238641  1
  Cl  Cl40  1  0.29693064  0.02395660  0.78474966  1
  Cl  Cl41  1  0.77320724  0.03292219  0.81001436  1
  Cl  Cl42  1  0.54452101  0.76362921  0.04165803  1
  Cl  Cl43  1  0.70784949  0.52733940  0.37313920  1
  Cl  Cl44  1  0.21020633  0.54659605  0.22907025  1
  Cl  Cl45  1  0.99840251  0.78069572  0.50216698  1
  Cl  Cl46  1  0.17306639  0.51225359  0.70119401  1
  Cl  Cl47  1  0.72459011  0.48249848  0.85764341  1
