# generated using pymatgen
data_CdH12C3(NCl3)2
_symmetry_space_group_name_H-M   'P 1'
_cell_length_a   7.80118636
_cell_length_b   10.56422845
_cell_length_c   7.70408009
_cell_angle_alpha   91.79271035
_cell_angle_beta   90.03324649
_cell_angle_gamma   90.07102097
_symmetry_Int_Tables_number   1
_chemical_formula_structural   CdH12C3(NCl3)2
_chemical_formula_sum   'Cd2 H24 C6 N4 Cl12'
_cell_volume   634.60894671
_cell_formula_units_Z   2
loop_
 _symmetry_equiv_pos_site_id
 _symmetry_equiv_pos_as_xyz
  1  'x, y, z'
loop_
 _atom_site_type_symbol
 _atom_site_label
 _atom_site_symmetry_multiplicity
 _atom_site_fract_x
 _atom_site_fract_y
 _atom_site_fract_z
 _atom_site_occupancy
  C  C0  1  0.46281432  0.26501688  0.47794624  1
  C  C1  1  0.96474536  0.23519317  0.02185088  1
  C  C2  1  0.56395538  0.74276684  0.58683814  1
  C  C3  1  0.06518123  0.75804536  0.91427810  1
  N  N4  1  0.58482539  0.24232858  0.62187480  1
  N  N5  1  0.08411806  0.25968920  0.87642784  1
  N  N6  1  0.39072263  0.73669086  0.50772112  1
  N  N7  1  0.89132904  0.76238524  0.99190227  1
  H  H8  1  0.53278906  0.26620891  0.35511536  1
  H  H9  1  0.36746555  0.18897534  0.47471745  1
  H  H10  1  0.39866504  0.35566608  0.50351855  1
  H  H11  1  0.64553319  0.15527403  0.60935403  1
  H  H12  1  0.68016651  0.31081733  0.62889732  1
  H  H13  1  0.52567532  0.24286843  0.74366394  1
  H  H14  1  0.03615852  0.23684584  0.14405904  1
  H  H15  1  0.90429228  0.14274872  0.99849327  1
  H  H16  1  0.86606640  0.30869276  0.02486884  1
  H  H17  1  0.18459613  0.19556920  0.87271294  1
  H  H18  1  0.13811488  0.34950205  0.88441784  1
  H  H19  1  0.02478926  0.25374202  0.75465332  1
  H  H20  1  0.54971147  0.76784454  0.72512933  1
  H  H21  1  0.62752279  0.65108205  0.56921154  1
  H  H22  1  0.63900538  0.81603804  0.52476453  1
  H  H23  1  0.32669256  0.82130022  0.53361762  1
  H  H24  1  0.32028348  0.66343275  0.56167557  1
  H  H25  1  0.39836372  0.72050361  0.37357498  1
  H  H26  1  0.05215449  0.73333001  0.77569534  1
  H  H27  1  0.12749169  0.85016868  0.93291962  1
  H  H28  1  0.14073732  0.68519203  0.97649798  1
  H  H29  1  0.82071468  0.83562260  0.93821928  1
  H  H30  1  0.82812922  0.67750658  0.96445681  1
  H  H31  1  0.89787953  0.77779702  0.12625847  1
  C  C32  1  0.48919583  0.99203789  0.10411865  1
  C  C33  1  0.98913911  0.50593217  0.39700309  1
  Cd  Cd34  1  0.01428714  0.99620240  0.57013427  1
  Cd  Cd35  1  0.51373604  0.50225383  0.93142350  1
  Cl  Cl36  1  0.47621716  0.28035272  0.02413372  1
  Cl  Cl37  1  0.28854728  0.00492504  0.20038130  1
  Cl  Cl38  1  0.64712028  0.00780333  0.26405838  1
  Cl  Cl39  1  0.97595782  0.21746409  0.47441175  1
  Cl  Cl40  1  0.30009788  0.00297709  0.70904195  1
  Cl  Cl41  1  0.76993301  0.99331961  0.77642998  1
  Cl  Cl42  1  0.49665797  0.69952064  0.11140644  1
  Cl  Cl43  1  0.78844517  0.49356676  0.30046205  1
  Cl  Cl44  1  0.14695465  0.49254034  0.23680592  1
  Cl  Cl45  1  0.99516184  0.79899652  0.38971696  1
  Cl  Cl46  1  0.26906048  0.50700545  0.72513895  1
  Cl  Cl47  1  0.79882217  0.49633545  0.79029734  1
