# generated using pymatgen
data_H12PdC3(NCl3)2
_symmetry_space_group_name_H-M   'P 1'
_cell_length_a   7.07118901
_cell_length_b   11.05793337
_cell_length_c   8.00659085
_cell_angle_alpha   83.12604325
_cell_angle_beta   89.98688191
_cell_angle_gamma   90.04924530
_symmetry_Int_Tables_number   1
_chemical_formula_structural   H12PdC3(NCl3)2
_chemical_formula_sum   'H24 Pd2 C6 N4 Cl12'
_cell_volume   621.55679215
_cell_formula_units_Z   2
loop_
 _symmetry_equiv_pos_site_id
 _symmetry_equiv_pos_as_xyz
  1  'x, y, z'
loop_
 _atom_site_type_symbol
 _atom_site_label
 _atom_site_symmetry_multiplicity
 _atom_site_fract_x
 _atom_site_fract_y
 _atom_site_fract_z
 _atom_site_occupancy
  C  C0  1  0.48463026  0.23149059  0.38326904  1
  C  C1  1  0.99251352  0.29250130  0.10852219  1
  C  C2  1  0.50635152  0.79233574  0.60857529  1
  C  C3  1  0.01573307  0.73174113  0.88348490  1
  N  N4  1  0.50457392  0.23973923  0.56573288  1
  N  N5  1  0.95758005  0.22364364  0.96436027  1
  N  N6  1  0.54115031  0.72388741  0.46400403  1
  N  N7  1  0.99599188  0.73978459  0.06598935  1
  H  H8  1  0.62562394  0.21783132  0.33249818  1
  H  H9  1  0.39241797  0.15440654  0.36615566  1
  H  H10  1  0.42458088  0.31688453  0.32250383  1
  H  H11  1  0.56373100  0.16048374  0.63096672  1
  H  H12  1  0.59702800  0.30929799  0.58527761  1
  H  H13  1  0.37526874  0.25095846  0.62179407  1
  H  H14  1  0.11790384  0.34983830  0.08271345  1
  H  H15  1  0.01521472  0.22893634  0.22246598  1
  H  H16  1  0.87064516  0.35038855  0.12616785  1
  H  H17  1  0.07017999  0.16759606  0.93589762  1
  H  H18  1  0.93538594  0.27883564  0.85070288  1
  H  H19  1  0.84114925  0.16679137  0.97967369  1
  H  H20  1  0.38046893  0.84917608  0.58346225  1
  H  H21  1  0.48451518  0.72851248  0.72245466  1
  H  H22  1  0.62790397  0.85067412  0.62587627  1
  H  H23  1  0.56314867  0.77932572  0.35050208  1
  H  H24  1  0.42872003  0.66763348  0.43550802  1
  H  H25  1  0.65775617  0.66728321  0.47892398  1
  H  H26  1  0.87473176  0.71762189  0.83295352  1
  H  H27  1  0.07522364  0.81737686  0.82270594  1
  H  H28  1  0.10832941  0.65500102  0.86606526  1
  H  H29  1  0.90329162  0.80908046  0.08578097  1
  H  H30  1  0.93709517  0.66035572  0.13122689  1
  H  H31  1  0.12530672  0.75129791  0.12186145  1
  C  C32  1  0.04141706  0.95757653  0.37097093  1
  C  C33  1  0.45966211  0.45887593  0.86891383  1
  Pd  Pd34  1  0.42220494  0.95408091  0.95700685  1
  Pd  Pd35  1  0.07849566  0.45398537  0.45627240  1
  Cl  Cl36  1  0.47590461  0.30327019  0.95837365  1
  Cl  Cl37  1  0.24143262  0.97626182  0.20991381  1
  Cl  Cl38  1  0.82134544  0.99979093  0.27231614  1
  Cl  Cl39  1  0.92853694  0.28077756  0.58167841  1
  Cl  Cl40  1  0.21743349  0.06748048  0.77590833  1
  Cl  Cl41  1  0.69631132  0.02017883  0.79893943  1
  Cl  Cl42  1  0.57272781  0.78109172  0.08151757  1
  Cl  Cl43  1  0.80368263  0.52003304  0.29924733  1
  Cl  Cl44  1  0.28312680  0.56706497  0.27416062  1
  Cl  Cl45  1  0.02363732  0.80155891  0.45869128  1
  Cl  Cl46  1  0.25992133  0.47733694  0.70845509  1
  Cl  Cl47  1  0.68003841  0.50000270  0.76985419  1
