# generated using pymatgen
data_H12RhC3(NCl3)2
_symmetry_space_group_name_H-M   'P 1'
_cell_length_a   8.29873058
_cell_length_b   9.60982701
_cell_length_c   7.79142955
_cell_angle_alpha   94.08698962
_cell_angle_beta   97.04273496
_cell_angle_gamma   91.59449065
_symmetry_Int_Tables_number   1
_chemical_formula_structural   H12RhC3(NCl3)2
_chemical_formula_sum   'H24 Rh2 C6 N4 Cl12'
_cell_volume   614.68544384
_cell_formula_units_Z   2
loop_
 _symmetry_equiv_pos_site_id
 _symmetry_equiv_pos_as_xyz
  1  'x, y, z'
loop_
 _atom_site_type_symbol
 _atom_site_label
 _atom_site_symmetry_multiplicity
 _atom_site_fract_x
 _atom_site_fract_y
 _atom_site_fract_z
 _atom_site_occupancy
  C  C0  1  0.44305373  0.23846997  0.44612943  1
  C  C1  1  0.96707020  0.27015075  0.06301532  1
  C  C2  1  0.53202470  0.77903040  0.56672651  1
  C  C3  1  0.08285737  0.70205049  0.88492018  1
  N  N4  1  0.55402648  0.23612834  0.60928802  1
  N  N5  1  0.09692403  0.24615070  0.95052769  1
  N  N6  1  0.36603237  0.71887393  0.50893201  1
  N  N7  1  0.96473066  0.79593304  0.95537089  1
  H  H8  1  0.51336025  0.26722052  0.34380381  1
  H  H9  1  0.38556870  0.13476776  0.41363431  1
  H  H10  1  0.35002835  0.31413837  0.46523959  1
  H  H11  1  0.64095454  0.16125904  0.60034606  1
  H  H12  1  0.61593774  0.33121016  0.64600557  1
  H  H13  1  0.49329674  0.21537731  0.71443371  1
  H  H14  1  0.01848377  0.26485058  0.19818354  1
  H  H15  1  0.87000326  0.19025866  0.02846162  1
  H  H16  1  0.91869077  0.37289931  0.04259491  1
  H  H17  1  0.14789860  0.15041205  0.96460692  1
  H  H18  1  0.19026223  0.32067918  0.98317191  1
  H  H19  1  0.05662152  0.25074659  0.81860821  1
  H  H20  1  0.53258518  0.83308757  0.69513435  1
  H  H21  1  0.61711203  0.69397939  0.57355920  1
  H  H22  1  0.56402079  0.85424510  0.47633217  1
  H  H23  1  0.28474988  0.79921381  0.51093661  1
  H  H24  1  0.33714843  0.64570553  0.59549709  1
  H  H25  1  0.35457338  0.66427583  0.38667166  1
  H  H26  1  0.02002212  0.63388917  0.77754037  1
  H  H27  1  0.17754620  0.76648288  0.83977103  1
  H  H28  1  0.13498323  0.63784306  0.98662375  1
  H  H29  1  0.91692778  0.86525199  0.86579949  1
  H  H30  1  0.86943511  0.73825891  0.99167826  1
  H  H31  1  0.01894059  0.85866456  0.06470133  1
  C  C32  1  0.68487541  0.78759747  0.18341556  1
  C  C33  1  0.78566448  0.72740569  0.28417725  1
  Rh  Rh34  1  0.98428707  0.01916359  0.48831888  1
  Rh  Rh35  1  0.51551951  0.48632670  0.02044657  1
  Cl  Cl36  1  0.49850402  0.24385838  0.99788457  1
  Cl  Cl37  1  0.14708859  0.99315954  0.25671219  1
  Cl  Cl38  1  0.75373318  0.06587177  0.30568782  1
  Cl  Cl39  1  0.03010396  0.25673796  0.53828166  1
  Cl  Cl40  1  0.22415816  0.98476699  0.68614101  1
  Cl  Cl41  1  0.82620455  0.02204070  0.72021271  1
  Cl  Cl42  1  0.52403981  0.74019903  0.04176632  1
  Cl  Cl43  1  0.70310842  0.47401327  0.26738995  1
  Cl  Cl44  1  0.29860148  0.49461369  0.19333420  1
  Cl  Cl45  1  0.93666101  0.76251493  0.44247597  1
  Cl  Cl46  1  0.32591891  0.48597917  0.76539004  1
  Cl  Cl47  1  0.72568446  0.50432445  0.84041642  1
