# generated using pymatgen
data_H12RuC3(NCl3)2
_symmetry_space_group_name_H-M   'P 1'
_cell_length_a   7.35677057
_cell_length_b   9.68459516
_cell_length_c   8.39149815
_cell_angle_alpha   79.31480019
_cell_angle_beta   95.04450200
_cell_angle_gamma   89.29188640
_symmetry_Int_Tables_number   1
_chemical_formula_structural   H12RuC3(NCl3)2
_chemical_formula_sum   'H24 Ru2 C6 N4 Cl12'
_cell_volume   584.97877638
_cell_formula_units_Z   2
loop_
 _symmetry_equiv_pos_site_id
 _symmetry_equiv_pos_as_xyz
  1  'x, y, z'
loop_
 _atom_site_type_symbol
 _atom_site_label
 _atom_site_symmetry_multiplicity
 _atom_site_fract_x
 _atom_site_fract_y
 _atom_site_fract_z
 _atom_site_occupancy
  C  C0  1  0.50543719  0.23203410  0.39569424  1
  C  C1  1  0.99280764  0.28620738  0.08764959  1
  C  C2  1  0.49866117  0.77662901  0.59559434  1
  C  C3  1  0.01506978  0.72162766  0.91233228  1
  N  N4  1  0.52479781  0.26528530  0.56132252  1
  N  N5  1  0.00404891  0.22687602  0.93794050  1
  N  N6  1  0.46937843  0.74126680  0.43090578  1
  N  N7  1  0.96600809  0.77787611  0.05566999  1
  H  H8  1  0.64218240  0.21786907  0.35866939  1
  H  H9  1  0.42734564  0.13617519  0.39871422  1
  H  H10  1  0.43196315  0.31979097  0.31372219  1
  H  H11  1  0.59833593  0.18470005  0.64246928  1
  H  H12  1  0.59610075  0.35676253  0.56799422  1
  H  H13  1  0.39824733  0.27297364  0.60400293  1
  H  H14  1  0.12448851  0.32888880  0.12162993  1
  H  H15  1  0.95971863  0.20327936  0.18719837  1
  H  H16  1  0.88757203  0.37020627  0.06448519  1
  H  H17  1  0.11710594  0.16030522  0.94421380  1
  H  H18  1  0.00727355  0.30485144  0.83569914  1
  H  H19  1  0.89254074  0.16670946  0.91089619  1
  H  H20  1  0.36910668  0.81017586  0.63290429  1
  H  H21  1  0.55587221  0.68450951  0.68159700  1
  H  H22  1  0.59372179  0.86281598  0.59281771  1
  H  H23  1  0.41685152  0.82755343  0.34445589  1
  H  H24  1  0.37590890  0.66182537  0.42089036  1
  H  H25  1  0.58703481  0.70450020  0.39012008  1
  H  H26  1  0.89007064  0.68890812  0.85076882  1
  H  H27  1  0.07957041  0.80524980  0.83217245  1
  H  H28  1  0.11067453  0.63233808  0.95362872  1
  H  H29  1  0.87255219  0.86070488  0.01581821  1
  H  H30  1  0.90467520  0.70197438  0.13755502  1
  H  H31  1  0.07959696  0.81605809  0.11434151  1
  C  C32  1  0.96830534  0.91823240  0.45863190  1
  C  C33  1  0.48246431  0.41616074  0.95269711  1
  Ru  Ru34  1  0.49010393  0.00919534  0.98992540  1
  Ru  Ru35  1  0.99111916  0.51294247  0.49271491  1
  Cl  Cl36  1  0.53844371  0.23719323  0.01530773  1
  Cl  Cl37  1  0.26282987  0.98911375  0.18095225  1
  Cl  Cl38  1  0.78470956  0.95319027  0.30203087  1
  Cl  Cl39  1  0.00605439  0.27124776  0.51247613  1
  Cl  Cl40  1  0.27191057  0.04655646  0.77104427  1
  Cl  Cl41  1  0.73071976  0.01714109  0.81148461  1
  Cl  Cl42  1  0.49523516  0.76789000  0.01347051  1
  Cl  Cl43  1  0.75340859  0.54909745  0.29081117  1
  Cl  Cl44  1  0.21272180  0.53122225  0.29930851  1
  Cl  Cl45  1  0.02937250  0.74068334  0.52038969  1
  Cl  Cl46  1  0.30333418  0.45338959  0.79343459  1
  Cl  Cl47  1  0.78457143  0.47989407  0.70174284  1
