# generated using pymatgen
data_ZrH12C3(NCl3)2
_symmetry_space_group_name_H-M   'P 1'
_cell_length_a   8.33744937
_cell_length_b   9.15180068
_cell_length_c   8.57931362
_cell_angle_alpha   75.93164114
_cell_angle_beta   90.06912752
_cell_angle_gamma   90.06525079
_symmetry_Int_Tables_number   1
_chemical_formula_structural   ZrH12C3(NCl3)2
_chemical_formula_sum   'Zr2 H24 C6 N4 Cl12'
_cell_volume   634.98932756
_cell_formula_units_Z   2
loop_
 _symmetry_equiv_pos_site_id
 _symmetry_equiv_pos_as_xyz
  1  'x, y, z'
loop_
 _atom_site_type_symbol
 _atom_site_label
 _atom_site_symmetry_multiplicity
 _atom_site_fract_x
 _atom_site_fract_y
 _atom_site_fract_z
 _atom_site_occupancy
  C  C0  1  0.44747036  0.26713574  0.40760202  1
  C  C1  1  0.01803787  0.26881973  0.11831276  1
  C  C2  1  0.48262128  0.76823978  0.61843360  1
  C  C3  1  0.05138957  0.76592347  0.90729768  1
  N  N4  1  0.58325454  0.21441191  0.51338425  1
  N  N5  1  0.05858539  0.22257765  0.96851389  1
  N  N6  1  0.44184659  0.72267090  0.46820294  1
  N  N7  1  0.91622178  0.71546628  0.01446112  1
  H  H8  1  0.45322141  0.23845782  0.29026053  1
  H  H9  1  0.33585419  0.21956804  0.46659160  1
  H  H10  1  0.43847558  0.39011177  0.38439024  1
  H  H11  1  0.58151779  0.10007967  0.55491605  1
  H  H12  1  0.68972032  0.24091121  0.45456324  1
  H  H13  1  0.58468667  0.32858130  0.70100341  1
  H  H14  1  0.12236013  0.32476132  0.15535159  1
  H  H15  1  0.98863163  0.16519782  0.20955968  1
  H  H16  1  0.91520087  0.34535494  0.09470363  1
  H  H17  1  0.14834488  0.14203145  0.99136273  1
  H  H18  1  0.09931835  0.31242661  0.87805780  1
  H  H19  1  0.96063295  0.17497137  0.92418848  1
  H  H20  1  0.37855146  0.82420549  0.65548254  1
  H  H21  1  0.51165219  0.66431024  0.70937589  1
  H  H22  1  0.58581877  0.84452513  0.59541414  1
  H  H23  1  0.40144721  0.81282697  0.37790837  1
  H  H24  1  0.35178055  0.64228782  0.49044956  1
  H  H25  1  0.53960536  0.67508690  0.42390172  1
  H  H26  1  0.04441907  0.73436835  0.79150497  1
  H  H27  1  0.06086850  0.88905753  0.88095155  1
  H  H28  1  0.16325871  0.71922554  0.96652397  1
  H  H29  1  0.80943439  0.74171658  0.95606462  1
  H  H30  1  0.91715881  0.60133417  0.05793218  1
  H  H31  1  0.91655548  0.82978076  0.20128592  1
  C  C32  1  0.92072722  0.91697301  0.27265307  1
  C  C33  1  0.58002342  0.41627448  0.77169223  1
  Zr  Zr34  1  0.52173301  0.00182988  0.99979021  1
  Zr  Zr35  1  0.97845324  0.50173465  0.50000547  1
  Cl  Cl36  1  0.54560161  0.30417062  0.98005444  1
  Cl  Cl37  1  0.31309631  0.00881269  0.20229289  1
  Cl  Cl38  1  0.69881681  0.97145343  0.26689868  1
  Cl  Cl39  1  0.99417799  0.23658248  0.53072268  1
  Cl  Cl40  1  0.33044255  0.06619508  0.78656959  1
  Cl  Cl41  1  0.76738485  0.04142095  0.84707448  1
  Cl  Cl42  1  0.50538789  0.73660092  0.03072925  1
  Cl  Cl43  1  0.73244907  0.54117646  0.34731094  1
  Cl  Cl44  1  0.16923178  0.56657422  0.28665593  1
  Cl  Cl45  1  0.95479211  0.80411764  0.48076177  1
  Cl  Cl46  1  0.18792920  0.50826142  0.70224987  1
  Cl  Cl47  1  0.80183401  0.47147612  0.76688246  1
