# generated using pymatgen
data_SrH12C3(NCl3)2
_symmetry_space_group_name_H-M   'P 1'
_cell_length_a   7.66745532
_cell_length_b   11.03338852
_cell_length_c   7.66957289
_cell_angle_alpha   90.50776177
_cell_angle_beta   89.77339585
_cell_angle_gamma   89.68942928
_symmetry_Int_Tables_number   1
_chemical_formula_structural   SrH12C3(NCl3)2
_chemical_formula_sum   'Sr2 H24 C6 N4 Cl12'
_cell_volume   648.79042172
_cell_formula_units_Z   2
loop_
 _symmetry_equiv_pos_site_id
 _symmetry_equiv_pos_as_xyz
  1  'x, y, z'
loop_
 _atom_site_type_symbol
 _atom_site_label
 _atom_site_symmetry_multiplicity
 _atom_site_fract_x
 _atom_site_fract_y
 _atom_site_fract_z
 _atom_site_occupancy
  C  C0  1  0.45469645  0.26913561  0.47958374  1
  C  C1  1  0.95696054  0.23071157  0.02100408  1
  C  C2  1  0.58347657  0.73999489  0.61602792  1
  C  C3  1  0.08323907  0.76176951  0.88475934  1
  N  N4  1  0.56644474  0.23866383  0.63081957  1
  N  N5  1  0.07036475  0.25372102  0.86750151  1
  N  N6  1  0.40576554  0.74162356  0.54103780  1
  N  N7  1  0.90555808  0.76014853  0.96094323  1
  H  H8  1  0.52977827  0.25594550  0.35933315  1
  H  H9  1  0.34191655  0.20889642  0.47887280  1
  H  H10  1  0.40977404  0.36305525  0.49404696  1
  H  H11  1  0.59265111  0.14637141  0.63818205  1
  H  H12  1  0.68634685  0.28114854  0.62029632  1
  H  H13  1  0.51077217  0.26130585  0.75203958  1
  H  H14  1  0.03523873  0.23704335  0.13958048  1
  H  H15  1  0.89839259  0.14093431  0.00579325  1
  H  H16  1  0.85387267  0.29954683  0.02496632  1
  H  H17  1  0.17693044  0.19575298  0.86634094  1
  H  H18  1  0.11869538  0.34146708  0.86662494  1
  H  H19  1  0.00614697  0.24346123  0.74771279  1
  H  H20  1  0.57287739  0.76697103  0.75345697  1
  H  H21  1  0.64015088  0.64925311  0.60322089  1
  H  H22  1  0.66347687  0.80611676  0.54767103  1
  H  H23  1  0.34599914  0.82433276  0.57564275  1
  H  H24  1  0.33432826  0.66853750  0.58977335  1
  H  H25  1  0.41067322  0.73598845  0.40558875  1
  H  H26  1  0.07279396  0.73648826  0.74677940  1
  H  H27  1  0.13941584  0.85207006  0.89934791  1
  H  H28  1  0.16328929  0.69435798  0.95098361  1
  H  H29  1  0.83321565  0.83308122  0.91206037  1
  H  H30  1  0.84750940  0.67713083  0.92666791  1
  H  H31  1  0.91059462  0.76616961  0.09634585  1
  C  C32  1  0.49420539  0.95899026  0.10731260  1
  C  C33  1  0.99367856  0.54103656  0.39185878  1
  Sr  Sr34  1  0.00457614  0.99987829  0.47769192  1
  Sr  Sr35  1  0.50728662  0.50331566  0.01897180  1
  Cl  Cl36  1  0.46046566  0.25806455  0.02633432  1
  Cl  Cl37  1  0.26658500  0.99398149  0.16124480  1
  Cl  Cl38  1  0.61916328  0.00359449  0.29857489  1
  Cl  Cl39  1  0.95428795  0.24670932  0.47568465  1
  Cl  Cl40  1  0.30053640  0.00175944  0.67591135  1
  Cl  Cl41  1  0.78852896  0.99512872  0.76470580  1
  Cl  Cl42  1  0.50127611  0.75260059  0.13431794  1
  Cl  Cl43  1  0.76661014  0.51098691  0.33692955  1
  Cl  Cl44  1  0.12016236  0.49498286  0.20224358  1
  Cl  Cl45  1  0.00594053  0.75164377  0.36538497  1
  Cl  Cl46  1  0.28943918  0.50481680  0.73487690  1
  Cl  Cl47  1  0.80593542  0.50139376  0.82524720  1
