# generated using pymatgen
data_GeH12C3(NCl3)2
_symmetry_space_group_name_H-M   'P 1'
_cell_length_a   7.80979170
_cell_length_b   10.55913640
_cell_length_c   7.58353773
_cell_angle_alpha   90.63539303
_cell_angle_beta   89.98883536
_cell_angle_gamma   90.21765916
_symmetry_Int_Tables_number   1
_chemical_formula_structural   GeH12C3(NCl3)2
_chemical_formula_sum   'Ge2 H24 C6 N4 Cl12'
_cell_volume   625.33085522
_cell_formula_units_Z   2
loop_
 _symmetry_equiv_pos_site_id
 _symmetry_equiv_pos_as_xyz
  1  'x, y, z'
loop_
 _atom_site_type_symbol
 _atom_site_label
 _atom_site_symmetry_multiplicity
 _atom_site_fract_x
 _atom_site_fract_y
 _atom_site_fract_z
 _atom_site_occupancy
  C  C0  1  0.43242881  0.25826170  0.43402672  1
  C  C1  1  0.93653036  0.24306628  0.06538326  1
  C  C2  1  0.57128491  0.75288840  0.57720786  1
  C  C3  1  0.06712247  0.74593081  0.92306898  1
  N  N4  1  0.58653799  0.25098532  0.54816175  1
  N  N5  1  0.08671883  0.24710853  0.94542081  1
  N  N6  1  0.40862443  0.74964223  0.47638063  1
  N  N7  1  0.90773633  0.75298137  0.02909009  1
  H  H8  1  0.47261634  0.25760968  0.29588302  1
  H  H9  1  0.35267721  0.17545742  0.45989039  1
  H  H10  1  0.36211831  0.34453449  0.46720405  1
  H  H11  1  0.65498641  0.16968436  0.52177330  1
  H  H12  1  0.66895831  0.32645999  0.52890799  1
  H  H13  1  0.55435382  0.25003034  0.68225191  1
  H  H14  1  0.98150676  0.24419898  0.20193242  1
  H  H15  1  0.86215302  0.15753258  0.03644444  1
  H  H16  1  0.85877613  0.32675602  0.04113853  1
  H  H17  1  0.16803860  0.17138242  0.96425793  1
  H  H18  1  0.15816590  0.32827491  0.96541707  1
  H  H19  1  0.05010473  0.24594474  0.81249417  1
  H  H20  1  0.54058345  0.75842992  0.71778107  1
  H  H21  1  0.64361928  0.66693279  0.54785848  1
  H  H22  1  0.64387119  0.83667546  0.53882207  1
  H  H23  1  0.33577871  0.82860590  0.50939062  1
  H  H24  1  0.33774510  0.66994175  0.50710953  1
  H  H25  1  0.43006067  0.75011880  0.34059752  1
  H  H26  1  0.03177994  0.73667898  0.78397916  1
  H  H27  1  0.14193669  0.83215135  0.94535465  1
  H  H28  1  0.13927039  0.66282697  0.96346726  1
  H  H29  1  0.83825999  0.83274831  0.99725255  1
  H  H30  1  0.83184330  0.67429788  0.00185065  1
  H  H31  1  0.93313809  0.75479250  0.16420379  1
  C  C32  1  0.49028001  0.96761420  0.07725314  1
  C  C33  1  0.99144630  0.53206237  0.42356278  1
  Ge  Ge34  1  0.00584447  0.00848900  0.53017084  1
  Ge  Ge35  1  0.50701304  0.48897652  0.97110871  1
  Cl  Cl36  1  0.50100831  0.26448144  0.95823906  1
  Cl  Cl37  1  0.27694234  0.99928700  0.18572495  1
  Cl  Cl38  1  0.65572461  0.99973086  0.25682283  1
  Cl  Cl39  1  0.99892435  0.23309775  0.53753767  1
  Cl  Cl40  1  0.26344856  0.99491927  0.69015805  1
  Cl  Cl41  1  0.81826597  0.99448958  0.77229381  1
  Cl  Cl42  1  0.49270210  0.78293545  0.06485597  1
  Cl  Cl43  1  0.77808694  0.50104756  0.31307515  1
  Cl  Cl44  1  0.15694824  0.50120276  0.24566013  1
  Cl  Cl45  1  0.99536308  0.71714962  0.43798739  1
  Cl  Cl46  1  0.31607461  0.50552733  0.73196941  1
  Cl  Cl47  1  0.76262431  0.50613642  0.80987406  1
