# generated using pymatgen
data_AlH6CI3N
_symmetry_space_group_name_H-M   'P 1'
_cell_length_a   8.65193431
_cell_length_b   10.48954277
_cell_length_c   9.68236458
_cell_angle_alpha   88.15756425
_cell_angle_beta   90.00103232
_cell_angle_gamma   89.98916024
_symmetry_Int_Tables_number   1
_chemical_formula_structural   AlH6CI3N
_chemical_formula_sum   'Al4 H24 C4 I12 N4'
_cell_volume   878.26710304
_cell_formula_units_Z   4
loop_
 _symmetry_equiv_pos_site_id
 _symmetry_equiv_pos_as_xyz
  1  'x, y, z'
loop_
 _atom_site_type_symbol
 _atom_site_label
 _atom_site_symmetry_multiplicity
 _atom_site_fract_x
 _atom_site_fract_y
 _atom_site_fract_z
 _atom_site_occupancy
  C  C0  1  0.48923162  0.29054449  0.42009572  1
  C  C1  1  0.98957684  0.20977472  0.08001093  1
  C  C2  1  0.50527618  0.73969389  0.55836357  1
  C  C3  1  0.00525926  0.76018980  0.94180016  1
  N  N4  1  0.52505676  0.23201437  0.55825565  1
  N  N5  1  0.02504144  0.26794391  0.94161462  1
  N  N6  1  0.43668726  0.68661842  0.43117681  1
  N  N7  1  0.93648254  0.81349436  0.06879865  1
  H  H8  1  0.59699347  0.32540224  0.37297552  1
  H  H9  1  0.43612627  0.21883379  0.35550181  1
  H  H10  1  0.40862230  0.36977045  0.43308510  1
  H  H11  1  0.59163952  0.15066970  0.54899312  1
  H  H12  1  0.58948348  0.29498625  0.61725856  1
  H  H13  1  0.42696680  0.20499797  0.61444871  1
  H  H14  1  0.09748221  0.17529126  0.12716602  1
  H  H15  1  0.90923231  0.13030640  0.06736420  1
  H  H16  1  0.93624902  0.28156596  0.14436587  1
  H  H17  1  0.08955246  0.20490209  0.88276042  1
  H  H18  1  0.09148171  0.34944159  0.95050594  1
  H  H19  1  0.92684466  0.29467983  0.88547256  1
  H  H20  1  0.41586099  0.79152863  0.61373337  1
  H  H21  1  0.55072468  0.66094329  0.62321649  1
  H  H22  1  0.59933022  0.80419626  0.52716162  1
  H  H23  1  0.39249928  0.75892253  0.36506508  1
  H  H24  1  0.34567383  0.62508918  0.45422898  1
  H  H25  1  0.52091272  0.63733871  0.37649606  1
  H  H26  1  0.91581016  0.70855427  0.88625724  1
  H  H27  1  0.05111506  0.83881052  0.87699936  1
  H  H28  1  0.09900756  0.69547335  0.97323683  1
  H  H29  1  0.84557055  0.87504998  0.04556623  1
  H  H30  1  0.89218823  0.74127220  0.13496120  1
  H  H31  1  0.02069325  0.86276424  0.12352255  1
  Al  Al32  1  0.50941740  0.99353879  0.01789411  1
  Al  Al33  1  0.00945943  0.50629035  0.48206275  1
  Al  Al34  1  0.92839948  0.00813655  0.53076854  1
  Al  Al35  1  0.42848577  0.49171115  0.96924827  1
  I  I36  1  0.58293718  0.28800615  0.02833390  1
  I  I37  1  0.28019915  0.94328025  0.21824417  1
  I  I38  1  0.72856760  0.99886481  0.33247413  1
  I  I39  1  0.08281674  0.21180052  0.47163688  1
  I  I40  1  0.29452296  0.04180284  0.80687652  1
  I  I41  1  0.78481841  0.03193688  0.76283619  1
  I  I42  1  0.55968095  0.71170989  0.95018966  1
  I  I43  1  0.78030754  0.55667588  0.28164556  1
  I  I44  1  0.22878503  0.50106486  0.16761856  1
  I  I45  1  0.05966466  0.78813217  0.54977749  1
  I  I46  1  0.28479967  0.46795479  0.73721706  1
  I  I47  1  0.79448912  0.45810774  0.69301385  1
