# generated using pymatgen
data_H12PbC3(I3N)2
_symmetry_space_group_name_H-M   'P 1'
_cell_length_a   8.50184697
_cell_length_b   12.09404962
_cell_length_c   8.33750413
_cell_angle_alpha   89.95798239
_cell_angle_beta   88.20299940
_cell_angle_gamma   91.11462238
_symmetry_Int_Tables_number   1
_chemical_formula_structural   H12PbC3(I3N)2
_chemical_formula_sum   'H24 Pb2 C6 I12 N4'
_cell_volume   856.69232760
_cell_formula_units_Z   2
loop_
 _symmetry_equiv_pos_site_id
 _symmetry_equiv_pos_as_xyz
  1  'x, y, z'
loop_
 _atom_site_type_symbol
 _atom_site_label
 _atom_site_symmetry_multiplicity
 _atom_site_fract_x
 _atom_site_fract_y
 _atom_site_fract_z
 _atom_site_occupancy
  C  C0  1  0.41614482  0.25206329  0.42214101  1
  C  C1  1  0.90542049  0.24843830  0.08212064  1
  C  C2  1  0.58963414  0.75138872  0.58632449  1
  C  C3  1  0.09019710  0.74751750  0.91785893  1
  N  N4  1  0.55595127  0.24895689  0.52438504  1
  N  N5  1  0.04703507  0.24821041  0.97336660  1
  N  N6  1  0.45166039  0.74754356  0.48135593  1
  N  N7  1  0.94502999  0.74954041  0.02107924  1
  H  H8  1  0.45643103  0.25401321  0.29610367  1
  H  H9  1  0.34493283  0.17699086  0.44450766  1
  H  H10  1  0.34741980  0.32510045  0.45241154  1
  H  H11  1  0.62203500  0.17930186  0.49535839  1
  H  H12  1  0.62875077  0.31808439  0.50651311  1
  H  H13  1  0.52445411  0.24498700  0.64598762  1
  H  H14  1  0.94341116  0.24964549  0.20647378  1
  H  H15  1  0.83495266  0.17373013  0.05966787  1
  H  H16  1  0.83894149  0.32272049  0.05716438  1
  H  H17  1  0.11517360  0.18006144  0.99760520  1
  H  H18  1  0.11571926  0.31863360  0.99078581  1
  H  H19  1  0.01869435  0.24581779  0.85189225  1
  H  H20  1  0.54719093  0.75525024  0.71151310  1
  H  H21  1  0.65762880  0.67648331  0.56642987  1
  H  H22  1  0.66051238  0.82530472  0.55617290  1
  H  H23  1  0.38446488  0.81702863  0.49836224  1
  H  H24  1  0.38073551  0.67858520  0.51039693  1
  H  H25  1  0.48344717  0.74409883  0.35894112  1
  H  H26  1  0.05611389  0.74824658  0.79230966  1
  H  H27  1  0.16299778  0.82036783  0.94403358  1
  H  H28  1  0.15392768  0.67198449  0.94240525  1
  H  H29  1  0.87952327  0.81914046  0.99523269  1
  H  H30  1  0.87517102  0.67988004  0.99768253  1
  H  H31  1  0.96959790  0.75021705  0.14269584  1
  C  C32  1  0.42776396  0.03387644  0.96347398  1
  C  C33  1  0.98996392  0.53037731  0.41981151  1
  Pb  Pb34  1  0.97751403  0.00852837  0.51655780  1
  Pb  Pb35  1  0.51660257  0.50845069  0.99086392  1
  I  I36  1  0.47587873  0.22149849  0.95263830  1
  I  I37  1  0.22654590  0.01210492  0.15468410  1
  I  I38  1  0.68687852  0.00957274  0.31740888  1
  I  I39  1  0.98502325  0.25379387  0.55586249  1
  I  I40  1  0.32450076  0.99521933  0.71827999  1
  I  I41  1  0.80159989  0.98436700  0.82823560  1
  I  I42  1  0.51452043  0.75070194  0.05845132  1
  I  I43  1  0.74075235  0.49936333  0.33155038  1
  I  I44  1  0.16376924  0.48494861  0.21702017  1
  I  I45  1  0.02082998  0.72111545  0.43803789  1
  I  I46  1  0.31828530  0.50614070  0.69544325  1
  I  I47  1  0.82629433  0.51068594  0.81269813  1
