# generated using pymatgen
data_ZnH12C3(NCl3)2
_symmetry_space_group_name_H-M   'P 1'
_cell_length_a   7.83275371
_cell_length_b   10.85111748
_cell_length_c   7.52398482
_cell_angle_alpha   91.59856001
_cell_angle_beta   91.21558060
_cell_angle_gamma   89.44359452
_symmetry_Int_Tables_number   1
_chemical_formula_structural   ZnH12C3(NCl3)2
_chemical_formula_sum   'Zn2 H24 C6 N4 Cl12'
_cell_volume   639.07520033
_cell_formula_units_Z   2
loop_
 _symmetry_equiv_pos_site_id
 _symmetry_equiv_pos_as_xyz
  1  'x, y, z'
loop_
 _atom_site_type_symbol
 _atom_site_label
 _atom_site_symmetry_multiplicity
 _atom_site_fract_x
 _atom_site_fract_y
 _atom_site_fract_z
 _atom_site_occupancy
  C  C0  1  0.44547998  0.24851485  0.43823501  1
  C  C1  1  0.95470122  0.25344541  0.06649368  1
  C  C2  1  0.56700773  0.76126456  0.57038931  1
  C  C3  1  0.06333580  0.73945227  0.93491026  1
  N  N4  1  0.58339062  0.20675881  0.56151996  1
  N  N5  1  0.09347600  0.29133431  0.94874944  1
  N  N6  1  0.39491520  0.72406884  0.50476854  1
  N  N7  1  0.89145582  0.77518942  0.99806535  1
  H  H8  1  0.48759641  0.23691367  0.30091868  1
  H  H9  1  0.33222739  0.19306831  0.46007027  1
  H  H10  1  0.41469200  0.34537044  0.46817558  1
  H  H11  1  0.60768226  0.11337077  0.54767860  1
  H  H12  1  0.70036366  0.24912694  0.54271748  1
  H  H13  1  0.55181460  0.22213903  0.69578714  1
  H  H14  1  0.99749411  0.26399641  0.20545199  1
  H  H15  1  0.92074758  0.15765049  0.03463015  1
  H  H16  1  0.84350296  0.31264769  0.04098207  1
  H  H17  1  0.20793349  0.24370358  0.96899449  1
  H  H18  1  0.12306036  0.38329124  0.96792899  1
  H  H19  1  0.05869560  0.27927191  0.81359873  1
  H  H20  1  0.55447229  0.80509724  0.70216856  1
  H  H21  1  0.64808316  0.67912228  0.57999313  1
  H  H22  1  0.62183070  0.82725857  0.48049720  1
  H  H23  1  0.31254264  0.80004799  0.51365417  1
  H  H24  1  0.34727996  0.65362110  0.58302017  1
  H  H25  1  0.39453062  0.68727556  0.37562455  1
  H  H26  1  0.04849944  0.69034729  0.80665440  1
  H  H27  1  0.13752968  0.82288725  0.91761253  1
  H  H28  1  0.12701155  0.67808611  0.02916966  1
  H  H29  1  0.83999806  0.84505110  0.91774657  1
  H  H30  1  0.81182611  0.69852760  0.98777198  1
  H  H31  1  0.89272818  0.81337131  0.12641492  1
  C  C32  1  0.42275695  0.96794939  0.02801618  1
  C  C33  1  0.96301314  0.52378819  0.37123911  1
  Zn  Zn34  1  0.97244565  0.03911683  0.56504017  1
  Zn  Zn35  1  0.48004300  0.46197441  0.93315703  1
  Cl  Cl36  1  0.49910543  0.25242036  0.96077339  1
  Cl  Cl37  1  0.25312397  0.00848698  0.16149392  1
  Cl  Cl38  1  0.83488375  0.97736865  0.30891645  1
  Cl  Cl39  1  0.98632680  0.25035057  0.54867504  1
  Cl  Cl40  1  0.23928442  0.97359878  0.63733081  1
  Cl  Cl41  1  0.78590568  1.00107609  0.78434578  1
  Cl  Cl42  1  0.48100160  0.81599118  0.07582833  1
  Cl  Cl43  1  0.74859902  0.49515396  0.34338007  1
  Cl  Cl44  1  0.34823025  0.52669766  0.18560214  1
  Cl  Cl45  1  0.98520170  0.68010199  0.43220588  1
  Cl  Cl46  1  0.28140831  0.49888691  0.71376022  1
  Cl  Cl47  1  0.74278893  0.52584399  0.86013850  1
