# generated using pymatgen
data_CaH12C3(NCl3)2
_symmetry_space_group_name_H-M   'P 1'
_cell_length_a   7.79845330
_cell_length_b   10.85214374
_cell_length_c   7.64078410
_cell_angle_alpha   90.84345978
_cell_angle_beta   89.94541914
_cell_angle_gamma   89.85844731
_symmetry_Int_Tables_number   1
_chemical_formula_structural   CaH12C3(NCl3)2
_chemical_formula_sum   'Ca2 H24 C6 N4 Cl12'
_cell_volume   646.56671471
_cell_formula_units_Z   2
loop_
 _symmetry_equiv_pos_site_id
 _symmetry_equiv_pos_as_xyz
  1  'x, y, z'
loop_
 _atom_site_type_symbol
 _atom_site_label
 _atom_site_symmetry_multiplicity
 _atom_site_fract_x
 _atom_site_fract_y
 _atom_site_fract_z
 _atom_site_occupancy
  C  C0  1  0.45781141  0.26564640  0.48079384  1
  C  C1  1  0.95993334  0.23415697  0.01903832  1
  C  C2  1  0.57463015  0.74040548  0.59720355  1
  C  C3  1  0.07422694  0.76041570  0.90331849  1
  N  N4  1  0.57655716  0.24093656  0.62820728  1
  N  N5  1  0.07871602  0.25699750  0.87090616  1
  N  N6  1  0.39968684  0.74108427  0.52156848  1
  N  N7  1  0.89937278  0.75966447  0.97944547  1
  H  H8  1  0.52917224  0.26228836  0.35761382  1
  H  H9  1  0.35830627  0.19481499  0.47954868  1
  H  H10  1  0.39873023  0.35624900  0.50180033  1
  H  H11  1  0.62455156  0.15154133  0.62579303  1
  H  H12  1  0.68139130  0.29925210  0.62546868  1
  H  H13  1  0.51858683  0.25129302  0.75149855  1
  H  H14  1  0.03217401  0.23484896  0.14157527  1
  H  H15  1  0.89716820  0.14515072  0.99714088  1
  H  H16  1  0.86334426  0.30737572  0.02216521  1
  H  H17  1  0.17884840  0.19410406  0.86907662  1
  H  H18  1  0.13312914  0.34421248  0.87624538  1
  H  H19  1  0.01854550  0.25130634  0.74839556  1
  H  H20  1  0.56437863  0.76368289  0.73689584  1
  H  H21  1  0.63313829  0.64959037  0.57776974  1
  H  H22  1  0.65201581  0.81027804  0.53294044  1
  H  H23  1  0.34013143  0.82417483  0.55555060  1
  H  H24  1  0.32839312  0.66826408  0.57207585  1
  H  H25  1  0.40472196  0.73227497  0.38519133  1
  H  H26  1  0.06394670  0.73772884  0.76348630  1
  H  H27  1  0.13245684  0.85103561  0.92342326  1
  H  H28  1  0.15184070  0.69008273  0.96674693  1
  H  H29  1  0.82745860  0.83244111  0.92923999  1
  H  H30  1  0.84055632  0.67647326  0.94533097  1
  H  H31  1  0.90455252  0.76837253  0.11579392  1
  C  C32  1  0.48438346  0.98420950  0.11100325  1
  C  C33  1  0.98395285  0.51405036  0.38833949  1
  Ca  Ca34  1  0.01709176  0.99760576  0.52874190  1
  Ca  Ca35  1  0.51858042  0.50331076  0.97088882  1
  Cl  Cl36  1  0.46658784  0.26956583  0.02699620  1
  Cl  Cl37  1  0.27221720  0.00421692  0.18821020  1
  Cl  Cl38  1  0.62616490  0.00977676  0.28622455  1
  Cl  Cl39  1  0.96503424  0.23180591  0.47306003  1
  Cl  Cl40  1  0.30390286  0.00338127  0.69842123  1
  Cl  Cl41  1  0.78137221  0.99430245  0.76977888  1
  Cl  Cl42  1  0.49762105  0.72260170  0.12001141  1
  Cl  Cl43  1  0.77160068  0.49661092  0.31129124  1
  Cl  Cl44  1  0.12559875  0.48968740  0.21256624  1
  Cl  Cl45  1  0.99862766  0.77843754  0.38034921  1
  Cl  Cl46  1  0.28271777  0.50634526  0.73035083  1
  Cl  Cl47  1  0.80609658  0.49802625  0.80281435  1
