# generated using pymatgen
data_SiH12C3(NCl3)2
_symmetry_space_group_name_H-M   'P 1'
_cell_length_a   7.77589822
_cell_length_b   10.44602948
_cell_length_c   7.60061313
_cell_angle_alpha   90.48404653
_cell_angle_beta   89.99523726
_cell_angle_gamma   90.10503286
_symmetry_Int_Tables_number   1
_chemical_formula_structural   SiH12C3(NCl3)2
_chemical_formula_sum   'Si2 H24 C6 N4 Cl12'
_cell_volume   617.35392469
_cell_formula_units_Z   2
loop_
 _symmetry_equiv_pos_site_id
 _symmetry_equiv_pos_as_xyz
  1  'x, y, z'
loop_
 _atom_site_type_symbol
 _atom_site_label
 _atom_site_symmetry_multiplicity
 _atom_site_fract_x
 _atom_site_fract_y
 _atom_site_fract_z
 _atom_site_occupancy
  C  C0  1  0.43020370  0.26046488  0.42854376  1
  C  C1  1  0.93162779  0.23966484  0.07218603  1
  C  C2  1  0.57034960  0.75215820  0.57512452  1
  C  C3  1  0.06819223  0.74723220  0.92420917  1
  N  N4  1  0.58572257  0.25349940  0.54130082  1
  N  N5  1  0.08606510  0.24570820  0.95773936  1
  N  N6  1  0.41289723  0.74847874  0.46492109  1
  N  N7  1  0.91206508  0.75258774  0.03627213  1
  H  H8  1  0.46999921  0.26070222  0.29064175  1
  H  H9  1  0.35114617  0.17630700  0.45440718  1
  H  H10  1  0.35905563  0.34734258  0.46188131  1
  H  H11  1  0.65543192  0.17184289  0.51382007  1
  H  H12  1  0.66681105  0.33078032  0.52154488  1
  H  H13  1  0.55431507  0.25180987  0.67503482  1
  H  H14  1  0.97285305  0.23962741  0.20965065  1
  H  H15  1  0.85916081  0.15294582  0.04014449  1
  H  H16  1  0.85323140  0.32402642  0.04680031  1
  H  H17  1  0.16677056  0.16845198  0.97769050  1
  H  H18  1  0.15673583  0.32740969  0.98324252  1
  H  H19  1  0.05342381  0.24661189  0.82428936  1
  H  H20  1  0.53245990  0.75926870  0.71338579  1
  H  H21  1  0.64331068  0.66451946  0.55166572  1
  H  H22  1  0.64669439  0.83550996  0.53815584  1
  H  H23  1  0.33746080  0.82832889  0.48925409  1
  H  H24  1  0.33904448  0.66877556  0.49216222  1
  H  H25  1  0.44197537  0.74691847  0.33067966  1
  H  H26  1  0.02859309  0.73869501  0.78657634  1
  H  H27  1  0.14222782  0.83492913  0.94489313  1
  H  H28  1  0.14416806  0.66411558  0.96199767  1
  H  H29  1  0.83847668  0.83199710  0.00787084  1
  H  H30  1  0.83583613  0.67256316  0.01494174  1
  H  H31  1  0.94263018  0.75568148  0.17015034  1
  C  C32  1  0.49003397  0.96872273  0.07395885  1
  C  C33  1  0.99160114  0.53148776  0.42579496  1
  Si  Si34  1  0.00656231  0.01635101  0.54002064  1
  Si  Si35  1  0.50735527  0.48346539  0.95994063  1
  Cl  Cl36  1  0.50073634  0.26882548  0.95272728  1
  Cl  Cl37  1  0.27626513  0.99711760  0.18743394  1
  Cl  Cl38  1  0.65708862  0.99803186  0.25317627  1
  Cl  Cl39  1  1.00049686  0.23097423  0.54685399  1
  Cl  Cl40  1  0.25132744  -0.00058442  0.68881847  1
  Cl  Cl41  1  0.82506419  0.99657134  0.76410677  1
  Cl  Cl42  1  0.49481626  0.78342548  0.05646826  1
  Cl  Cl43  1  0.77841621  0.50270495  0.31096381  1
  Cl  Cl44  1  0.15960296  0.50285808  0.24781838  1
  Cl  Cl45  1  0.99611868  0.71687284  0.44380184  1
  Cl  Cl46  1  0.32441748  0.50370606  0.73729716  1
  Cl  Cl47  1  0.75118545  0.50059311  0.80993723  1
