# generated using pymatgen
data_MgH12C3(NCl3)2
_symmetry_space_group_name_H-M   'P 1'
_cell_length_a   7.70412326
_cell_length_b   10.54493948
_cell_length_c   7.72977247
_cell_angle_alpha   92.97915565
_cell_angle_beta   89.99471625
_cell_angle_gamma   90.01587595
_symmetry_Int_Tables_number   1
_chemical_formula_structural   MgH12C3(NCl3)2
_chemical_formula_sum   'Mg2 H24 C6 N4 Cl12'
_cell_volume   627.11424285
_cell_formula_units_Z   2
loop_
 _symmetry_equiv_pos_site_id
 _symmetry_equiv_pos_as_xyz
  1  'x, y, z'
loop_
 _atom_site_type_symbol
 _atom_site_label
 _atom_site_symmetry_multiplicity
 _atom_site_fract_x
 _atom_site_fract_y
 _atom_site_fract_z
 _atom_site_occupancy
  C  C0  1  0.45561263  0.25778382  0.46542121  1
  C  C1  1  0.95871482  0.24267062  0.03390319  1
  C  C2  1  0.57001126  0.75427851  0.59640404  1
  C  C3  1  0.06881628  0.74576980  0.90499377  1
  N  N4  1  0.57413981  0.24438103  0.61512550  1
  N  N5  1  0.07406949  0.25669736  0.88190595  1
  N  N6  1  0.40090302  0.73576301  0.50664191  1
  N  N7  1  0.89979640  0.76456802  0.99484704  1
  H  H8  1  0.53192537  0.25974073  0.34642937  1
  H  H9  1  0.36610882  0.17725997  0.45923439  1
  H  H10  1  0.38226603  0.34596888  0.48638760  1
  H  H11  1  0.65058666  0.16378104  0.60160818  1
  H  H12  1  0.65865220  0.32098544  0.63088507  1
  H  H13  1  0.50827979  0.23920543  0.73229070  1
  H  H14  1  0.03736294  0.24206643  0.15144785  1
  H  H15  1  0.88690679  0.15360244  0.01497843  1
  H  H16  1  0.86756007  0.32215556  0.04106679  1
  H  H17  1  0.16102587  0.18161981  0.86650125  1
  H  H18  1  0.14759855  0.33897390  0.89212715  1
  H  H19  1  0.00604276  0.25925492  0.76567684  1
  H  H20  1  0.54483198  0.78439231  0.73186697  1
  H  H21  1  0.64293005  0.66514750  0.58791238  1
  H  H22  1  0.64329091  0.82840956  0.53508511  1
  H  H23  1  0.32585852  0.81709291  0.52319782  1
  H  H24  1  0.33382793  0.66085507  0.55968507  1
  H  H25  1  0.41775601  0.71451653  0.37426088  1
  H  H26  1  0.04352042  0.71580977  0.76950625  1
  H  H27  1  0.14208331  0.83477507  0.91357208  1
  H  H28  1  0.14180864  0.67146323  0.96618723  1
  H  H29  1  0.83317175  0.83975741  0.94198120  1
  H  H30  1  0.82426515  0.68347384  0.97817520  1
  H  H31  1  0.91677555  0.78551042  0.12727461  1
  C  C32  1  0.48910982  0.97090893  0.08879747  1
  C  C33  1  0.98847603  0.52712240  0.41205633  1
  Mg  Mg34  1  0.01561943  0.00156987  0.57391922  1
  Mg  Mg35  1  0.51552750  0.49723438  0.92698560  1
  Cl  Cl36  1  0.46959294  0.29510967  0.02491407  1
  Cl  Cl37  1  0.28720718  0.00083161  0.18031849  1
  Cl  Cl38  1  0.64826849  0.00072945  0.24591696  1
  Cl  Cl39  1  0.96890564  0.20275431  0.47281567  1
  Cl  Cl40  1  0.28870408  0.00768117  0.70170703  1
  Cl  Cl41  1  0.79406120  0.99734886  0.77751288  1
  Cl  Cl42  1  0.50085217  0.68080263  0.10802696  1
  Cl  Cl43  1  0.78665553  0.49768148  0.31995655  1
  Cl  Cl44  1  0.14781509  0.49955447  0.25457743  1
  Cl  Cl45  1  0.00099066  0.81759151  0.39374984  1
  Cl  Cl46  1  0.29348402  0.50320627  0.72395809  1
  Cl  Cl47  1  0.78825419  0.49222093  0.79850296  1
