# generated using pymatgen
data_BiH12C2(NCl2)3
_symmetry_space_group_name_H-M   'P 1'
_cell_length_a   8.15045330
_cell_length_b   10.00359148
_cell_length_c   7.79013001
_cell_angle_alpha   93.79011582
_cell_angle_beta   89.93979269
_cell_angle_gamma   90.04296350
_symmetry_Int_Tables_number   1
_chemical_formula_structural   BiH12C2(NCl2)3
_chemical_formula_sum   'Bi2 H24 C4 N6 Cl12'
_cell_volume   633.76928069
_cell_formula_units_Z   2
loop_
 _symmetry_equiv_pos_site_id
 _symmetry_equiv_pos_as_xyz
  1  'x, y, z'
loop_
 _atom_site_type_symbol
 _atom_site_label
 _atom_site_symmetry_multiplicity
 _atom_site_fract_x
 _atom_site_fract_y
 _atom_site_fract_z
 _atom_site_occupancy
  C  C0  1  0.49144366  0.26922398  0.42650649  1
  C  C1  1  0.90781333  0.23309998  0.04661475  1
  C  C2  1  0.59274794  0.73311678  0.54687325  1
  C  C3  1  0.00727235  0.76935384  0.92709153  1
  N  N4  1  0.55725954  0.28011364  0.60411692  1
  N  N5  1  0.03505518  0.20402291  0.91274484  1
  N  N6  1  0.46549116  0.70393895  0.41326621  1
  N  N7  1  0.94257185  0.77995076  0.10530400  1
  H  H8  1  0.58671808  0.22617137  0.34137406  1
  H  H9  1  0.38340266  0.20386963  0.42269366  1
  H  H10  1  0.45841982  0.36871221  0.38699254  1
  H  H11  1  0.59770565  0.18811650  0.64466557  1
  H  H12  1  0.65698786  0.34495950  0.61823055  1
  H  H13  1  0.47016723  0.32024272  0.68993861  1
  H  H14  1  0.96777054  0.27840314  0.16124994  1
  H  H15  1  0.85214740  0.13838038  0.07748041  1
  H  H16  1  0.81647830  0.30132245  0.99908995  1
  H  H17  1  0.12224960  0.14203449  0.96384134  1
  H  H18  1  0.09206234  0.29030044  0.87813268  1
  H  H19  1  0.98738084  0.15416288  0.80259930  1
  H  H20  1  0.53284007  0.77853015  0.66155700  1
  H  H21  1  0.64822636  0.63842184  0.57777771  1
  H  H22  1  0.68422362  0.80129523  0.49910619  1
  H  H23  1  0.40876891  0.79021683  0.37854601  1
  H  H24  1  0.37809463  0.64210691  0.46468895  1
  H  H25  1  0.51304970  0.65388674  0.30314105  1
  H  H26  1  0.91139423  0.72653237  0.84266542  1
  H  H27  1  0.04038180  0.86889608  0.88763496  1
  H  H28  1  0.11512450  0.70389159  0.92213409  1
  H  H29  1  0.84306611  0.84489342  0.12047457  1
  H  H30  1  0.90215291  0.68787073  0.14583314  1
  H  H31  1  0.03028471  0.81985045  0.19043986  1
  N  N32  1  0.10090046  0.97441352  0.63822458  1
  N  N33  1  0.39960185  0.47453913  0.13783263  1
  Bi  Bi34  1  0.48340138  0.99741132  0.00386884  1
  Bi  Bi35  1  0.01684123  0.49729004  0.50386347  1
  Cl  Cl36  1  0.43790340  0.32121241  0.01710862  1
  Cl  Cl37  1  0.20462728  0.01461817  0.18129206  1
  Cl  Cl38  1  0.68052259  0.98483675  0.26762381  1
  Cl  Cl39  1  0.01737848  0.24563354  0.49028376  1
  Cl  Cl40  1  0.31415875  0.99587900  0.65837773  1
  Cl  Cl41  1  0.71935524  0.02363852  0.76144651  1
  Cl  Cl42  1  0.48259445  0.74574229  0.99054905  1
  Cl  Cl43  1  0.78061991  0.52290904  0.26212717  1
  Cl  Cl44  1  0.18631311  0.49597105  0.15803608  1
  Cl  Cl45  1  0.06261083  0.82097776  0.51768852  1
  Cl  Cl46  1  0.29511985  0.51447714  0.68169756  1
  Cl  Cl47  1  0.81932206  0.48463967  0.76747066  1
