# generated using pymatgen
data_TlH12C2(NCl2)3
_symmetry_space_group_name_H-M   'P 1'
_cell_length_a   7.82894157
_cell_length_b   10.65783986
_cell_length_c   7.58657149
_cell_angle_alpha   90.13467467
_cell_angle_beta   90.04988002
_cell_angle_gamma   90.03907834
_symmetry_Int_Tables_number   1
_chemical_formula_structural   TlH12C2(NCl2)3
_chemical_formula_sum   'Tl2 H24 C4 N6 Cl12'
_cell_volume   633.01839558
_cell_formula_units_Z   2
loop_
 _symmetry_equiv_pos_site_id
 _symmetry_equiv_pos_as_xyz
  1  'x, y, z'
loop_
 _atom_site_type_symbol
 _atom_site_label
 _atom_site_symmetry_multiplicity
 _atom_site_fract_x
 _atom_site_fract_y
 _atom_site_fract_z
 _atom_site_occupancy
  C  C0  1  0.46939675  0.27070956  0.47175742  1
  C  C1  1  0.97048781  0.22973503  0.02794484  1
  C  C2  1  0.57238137  0.74052230  0.58183459  1
  C  C3  1  0.07292026  0.75915158  0.91837623  1
  N  N4  1  0.57626200  0.24312297  0.62843504  1
  N  N5  1  0.07634995  0.25704535  0.87063285  1
  N  N6  1  0.39322310  0.74640496  0.51882678  1
  N  N7  1  0.89391355  0.75347709  0.98160463  1
  H  H8  1  0.54607611  0.25771156  0.35289462  1
  H  H9  1  0.36029306  0.20651089  0.47008910  1
  H  H10  1  0.42327411  0.36728092  0.48187695  1
  H  H11  1  0.61831068  0.15084008  0.63200984  1
  H  H12  1  0.68402624  0.29942965  0.63097532  1
  H  H13  1  0.51263921  0.25693221  0.74830320  1
  H  H14  1  0.04817284  0.24264835  0.14631140  1
  H  H15  1  0.92383636  0.13322316  0.01821557  1
  H  H16  1  0.86176077  0.29413483  0.03019300  1
  H  H17  1  0.18376098  0.20049541  0.86751286  1
  H  H18  1  0.11895596  0.34926368  0.86673750  1
  H  H19  1  0.01184346  0.24334488  0.75115116  1
  H  H20  1  0.57300724  0.76530832  0.72193236  1
  H  H21  1  0.62296197  0.64599144  0.56240361  1
  H  H22  1  0.64856380  0.80893964  0.50936130  1
  H  H23  1  0.33926825  0.83148170  0.55963049  1
  H  H24  1  0.32337562  0.67203503  0.57342902  1
  H  H25  1  0.38645717  0.74022158  0.38277942  1
  H  H26  1  0.07302708  0.73432826  0.77832964  1
  H  H27  1  0.12390322  0.85368029  0.93772049  1
  H  H28  1  0.14904610  0.69071416  0.99080806  1
  H  H29  1  0.82420709  0.82795801  0.92710247  1
  H  H30  1  0.83956273  0.66848726  0.94073892  1
  H  H31  1  0.88755314  0.75961204  0.11766489  1
  N  N32  1  0.48761158  0.96608634  0.11108261  1
  N  N33  1  0.98776824  0.53376782  0.38956968  1
  Tl  Tl34  1  0.99975576  0.98665812  0.51369958  1
  Tl  Tl35  1  0.50018749  0.51312171  0.98683143  1
  Cl  Cl36  1  0.46140120  0.26660761  0.02303529  1
  Cl  Cl37  1  0.28913842  0.99784438  0.20754883  1
  Cl  Cl38  1  0.65131283  0.00455818  0.25981082  1
  Cl  Cl39  1  0.96094177  0.23295599  0.47597031  1
  Cl  Cl40  1  0.29172458  0.00571143  0.70377105  1
  Cl  Cl41  1  0.77198065  0.99420420  0.78233266  1
  Cl  Cl42  1  0.49292269  0.75515173  0.08773422  1
  Cl  Cl43  1  0.78917764  0.50190030  0.29285665  1
  Cl  Cl44  1  0.15138980  0.49596524  0.24071113  1
  Cl  Cl45  1  0.99254719  0.74472780  0.41318757  1
  Cl  Cl46  1  0.27167538  0.50575091  0.71830792  1
  Cl  Cl47  1  0.79167054  0.49432431  0.79626326  1
