# generated using pymatgen
data_H12WC2(NCl2)3
_symmetry_space_group_name_H-M   'P 1'
_cell_length_a   8.65593100
_cell_length_b   9.96762300
_cell_length_c   7.49961690
_cell_angle_alpha   99.70048384
_cell_angle_beta   88.09405671
_cell_angle_gamma   93.34570571
_symmetry_Int_Tables_number   1
_chemical_formula_structural   H12WC2(NCl2)3
_chemical_formula_sum   'H24 W2 C4 N6 Cl12'
_cell_volume   636.54070468
_cell_formula_units_Z   2
loop_
 _symmetry_equiv_pos_site_id
 _symmetry_equiv_pos_as_xyz
  1  'x, y, z'
loop_
 _atom_site_type_symbol
 _atom_site_label
 _atom_site_symmetry_multiplicity
 _atom_site_fract_x
 _atom_site_fract_y
 _atom_site_fract_z
 _atom_site_occupancy
  C  C0  1  0.60781091  0.34951861  0.48544635  1
  C  C1  1  0.84291507  0.18175475  0.05129062  1
  C  C2  1  0.67060315  0.69234643  0.47135413  1
  C  C3  1  0.89842905  0.82354217  0.91851161  1
  N  N4  1  0.59799425  0.28786760  0.65273126  1
  N  N5  1  0.96988165  0.22561382  0.93100056  1
  N  N6  1  0.53126747  0.69583844  0.36110767  1
  N  N7  1  0.82655315  0.77961957  0.08315936  1
  H  H8  1  0.72718224  0.38807638  0.46799933  1
  H  H9  1  0.57723756  0.27063800  0.37037262  1
  H  H10  1  0.52725252  0.43127319  0.49816004  1
  H  H11  1  0.68243488  0.21331514  0.63814705  1
  H  H12  1  0.62039337  0.35974842  0.76960140  1
  H  H13  1  0.48995400  0.24266363  0.67186453  1
  H  H14  1  0.89003626  0.16012598  0.17659066  1
  H  H15  1  0.78023302  0.09208602  0.97790135  1
  H  H16  1  0.76320323  0.26439944  0.08285726  1
  H  H17  1  0.07635221  0.19116479  0.95501061  1
  H  H18  1  0.98577512  0.33033683  0.94950951  1
  H  H19  1  0.94529830  0.19102081  0.79107227  1
  H  H20  1  0.63397789  0.67522331  0.60724583  1
  H  H21  1  0.74113000  0.60914528  0.40644269  1
  H  H22  1  0.73816764  0.78982843  0.48298355  1
  H  H23  1  0.51620916  0.79264957  0.33250616  1
  H  H24  1  0.42758813  0.66242100  0.42721600  1
  H  H25  1  0.54398815  0.62926997  0.23768487  1
  H  H26  1  0.81421751  0.80337901  0.81091309  1
  H  H27  1  0.92965258  0.93232597  0.94892696  1
  H  H28  1  0.00160555  0.76670487  0.87982871  1
  H  H29  1  0.73585664  0.84244430  0.13110242  1
  H  H30  1  0.78095321  0.67643363  0.05745270  1
  H  H31  1  0.90741891  0.78910007  0.18288971  1
  N  N32  1  0.24099358  0.91190767  0.76825501  1
  N  N33  1  0.27327075  0.59050787  0.51768200  1
  W  W34  1  0.36565704  0.93733506  0.95248897  1
  W  W35  1  0.14440095  0.45741607  0.53238010  1
  Cl  Cl36  1  0.36285326  0.17649151  0.99164318  1
  Cl  Cl37  1  0.17302218  0.93550036  0.18172978  1
  Cl  Cl38  1  0.55478440  0.98404586  0.21125380  1
  Cl  Cl39  1  0.25085700  0.26150447  0.39279883  1
  Cl  Cl40  1  0.58138242  0.95973959  0.75742159  1
  Cl  Cl41  1  0.87853110  0.11815201  0.53922832  1
  Cl  Cl42  1  0.41227911  0.71123068  0.94730456  1
  Cl  Cl43  1  0.66162317  0.48921329  0.03477442  1
  Cl  Cl44  1  0.00384968  0.47385459  0.27361848  1
  Cl  Cl45  1  0.15747316  0.91077259  0.58205714  1
  Cl  Cl46  1  0.23429596  0.41334056  0.80861243  1
  Cl  Cl47  1  0.92317718  0.52919064  0.70016708  1
