# generated using pymatgen
data_TaH12C2(NCl2)3
_symmetry_space_group_name_H-M   'P 1'
_cell_length_a   9.40479442
_cell_length_b   8.91316474
_cell_length_c   7.61086377
_cell_angle_alpha   107.75718682
_cell_angle_beta   89.81362052
_cell_angle_gamma   89.99056714
_symmetry_Int_Tables_number   1
_chemical_formula_structural   TaH12C2(NCl2)3
_chemical_formula_sum   'Ta2 H24 C4 N6 Cl12'
_cell_volume   607.59277437
_cell_formula_units_Z   2
loop_
 _symmetry_equiv_pos_site_id
 _symmetry_equiv_pos_as_xyz
  1  'x, y, z'
loop_
 _atom_site_type_symbol
 _atom_site_label
 _atom_site_symmetry_multiplicity
 _atom_site_fract_x
 _atom_site_fract_y
 _atom_site_fract_z
 _atom_site_occupancy
  C  C0  1  0.56008815  0.33494804  0.54537387  1
  C  C1  1  0.96977013  0.22967942  0.95834950  1
  C  C2  1  0.53298781  0.73514810  0.45152112  1
  C  C3  1  0.93656688  0.83099032  0.04506858  1
  N  N4  1  0.67819534  0.30894733  0.66188897  1
  N  N5  1  0.06018071  0.13949988  0.80168178  1
  N  N6  1  0.44067477  0.63979647  0.30102726  1
  N  N7  1  0.81944245  0.80445220  0.16350682  1
  H  H8  1  0.60498585  0.35035731  0.41897561  1
  H  H9  1  0.48926332  0.23293027  0.50926702  1
  H  H10  1  0.50045413  0.43988075  0.62297257  1
  H  H11  1  0.71540562  0.19184983  0.62181562  1
  H  H12  1  0.76261708  0.38224602  0.65334187  1
  H  H13  1  0.65206659  0.34057362  0.80251291  1
  H  H14  1  0.03319721  0.26661079  0.08366500  1
  H  H15  1  0.88176346  0.15462869  0.97472025  1
  H  H16  1  0.92695824  0.33403179  0.93040117  1
  H  H17  1  0.12698065  0.06207139  0.83910043  1
  H  H18  1  0.12310162  0.21401293  0.75429748  1
  H  H19  1  0.99067009  0.07286759  0.69563222  1
  H  H20  1  0.47250176  0.77420380  0.57974162  1
  H  H21  1  0.62361829  0.66293787  0.46643458  1
  H  H22  1  0.57131071  0.83853901  0.41720119  1
  H  H23  1  0.37439468  0.71096012  0.25310362  1
  H  H24  1  0.37688698  0.56290301  0.34409700  1
  H  H25  1  0.50902395  0.57179500  0.19379914  1
  H  H26  1  0.89067518  0.84706405  0.91984738  1
  H  H27  1  0.99628645  0.93578136  0.12194375  1
  H  H28  1  0.00753578  0.72896760  0.00686717  1
  H  H29  1  0.73400426  0.87615790  0.15452874  1
  H  H30  1  0.78384830  0.68679021  0.12500225  1
  H  H31  1  0.84566930  0.83829062  0.30401571  1
  N  N32  1  0.24824274  0.86563955  0.83919621  1
  N  N33  1  0.25300090  0.36517235  0.33775731  1
  Ta  Ta34  1  0.39571204  0.95872651  0.99152418  1
  Ta  Ta35  1  0.10507983  0.45910435  0.49027109  1
  Cl  Cl36  1  0.32122507  0.28525103  0.12958222  1
  Cl  Cl37  1  0.29453178  0.97105981  0.27794031  1
  Cl  Cl38  1  0.62214327  0.07362078  0.12607024  1
  Cl  Cl39  1  0.98040260  0.22312242  0.41083566  1
  Cl  Cl40  1  0.43760218  0.10486140  0.77947258  1
  Cl  Cl41  1  0.81142464  0.96821607  0.58981436  1
  Cl  Cl42  1  0.52011116  0.72192407  0.90862006  1
  Cl  Cl43  1  0.68817202  0.46391811  0.08904322  1
  Cl  Cl44  1  0.06772267  0.60755862  0.27932229  1
  Cl  Cl45  1  0.18151283  0.78550036  0.63089037  1
  Cl  Cl46  1  0.20413229  0.47026965  0.77669199  1
  Cl  Cl47  1  0.87788197  0.57621992  0.62156229  1
