# generated using pymatgen
data_SbH12C2(NCl2)3
_symmetry_space_group_name_H-M   'P 1'
_cell_length_a   8.43907880
_cell_length_b   9.89522977
_cell_length_c   7.46244037
_cell_angle_alpha   94.55376665
_cell_angle_beta   89.88624617
_cell_angle_gamma   89.95223001
_symmetry_Int_Tables_number   1
_chemical_formula_structural   SbH12C2(NCl2)3
_chemical_formula_sum   'Sb2 H24 C4 N6 Cl12'
_cell_volume   621.19450967
_cell_formula_units_Z   2
loop_
 _symmetry_equiv_pos_site_id
 _symmetry_equiv_pos_as_xyz
  1  'x, y, z'
loop_
 _atom_site_type_symbol
 _atom_site_label
 _atom_site_symmetry_multiplicity
 _atom_site_fract_x
 _atom_site_fract_y
 _atom_site_fract_z
 _atom_site_occupancy
  C  C0  1  0.51337167  0.28513654  0.43440833  1
  C  C1  1  0.89748296  0.17959913  0.01748745  1
  C  C2  1  0.60187177  0.68103188  0.51494913  1
  C  C3  1  0.98712874  0.78488875  0.93508788  1
  N  N4  1  0.57915670  0.27437399  0.61678352  1
  N  N5  1  0.04077282  0.23690997  0.93575184  1
  N  N6  1  0.45727934  0.73740072  0.43523339  1
  N  N7  1  0.92236154  0.77457248  0.11831056  1
  H  H8  1  0.60780680  0.26342871  0.33617115  1
  H  H9  1  0.41660562  0.21211610  0.41210619  1
  H  H10  1  0.46841396  0.38771821  0.42343879  1
  H  H11  1  0.61674362  0.17544340  0.63608349  1
  H  H12  1  0.67565102  0.33902672  0.64248577  1
  H  H13  1  0.49673543  0.30302582  0.71624708  1
  H  H14  1  0.91240442  0.18649027  0.16331324  1
  H  H15  1  0.88546997  0.07462718  0.96282135  1
  H  H16  1  0.79416693  0.23893360  0.98274143  1
  H  H17  1  0.14035228  0.19068778  0.98453721  1
  H  H18  1  0.04929166  0.34008227  0.96892480  1
  H  H19  1  0.03975382  0.22046572  0.79649347  1
  H  H20  1  0.58757399  0.68697425  0.66090239  1
  H  H21  1  0.61535187  0.57642106  0.45915372  1
  H  H22  1  0.70404463  0.74164160  0.47989245  1
  H  H23  1  0.44672867  0.84025722  0.47005549  1
  H  H24  1  0.35878757  0.68950880  0.48413179  1
  H  H25  1  0.45816918  0.72229140  0.29582969  1
  H  H26  1  0.89195448  0.76390589  0.83807060  1
  H  H27  1  0.03282810  0.88709300  0.92359164  1
  H  H28  1  0.08324164  0.71109130  0.91150114  1
  H  H29  1  0.82591108  0.83935358  0.14483796  1
  H  H30  1  0.88488528  0.67570167  0.13812113  1
  H  H31  1  0.00531011  0.80326808  0.21669256  1
  N  N32  1  0.09070866  0.99391573  0.63517566  1
  N  N33  1  0.40988388  0.49286384  0.13358323  1
  Sb  Sb34  1  0.47423999  0.00414125  0.99685721  1
  Sb  Sb35  1  0.02592382  0.50470514  0.49675681  1
  Cl  Cl36  1  0.44168340  0.32776364  0.02585403  1
  Cl  Cl37  1  0.22088558  0.01902191  0.18327727  1
  Cl  Cl38  1  0.66287511  0.98756044  0.26224856  1
  Cl  Cl39  1  0.04104689  0.26037662  0.48357630  1
  Cl  Cl40  1  0.29517526  0.01429658  0.66232943  1
  Cl  Cl41  1  0.68011581  0.98092928  0.72403633  1
  Cl  Cl42  1  0.45974707  0.75970794  0.98325261  1
  Cl  Cl43  1  0.82129558  0.48060135  0.22351670  1
  Cl  Cl44  1  0.20553120  0.51382043  0.16172986  1
  Cl  Cl45  1  0.05842392  0.82913121  0.52735179  1
  Cl  Cl46  1  0.27877411  0.51950766  0.68279363  1
  Cl  Cl47  1  0.83610582  0.48826816  0.76180055  1
