# generated using pymatgen
data_InH12C2(NCl2)3
_symmetry_space_group_name_H-M   'P 1'
_cell_length_a   7.78654119
_cell_length_b   10.70267647
_cell_length_c   7.46147438
_cell_angle_alpha   92.97963313
_cell_angle_beta   89.98572822
_cell_angle_gamma   90.00627542
_symmetry_Int_Tables_number   1
_chemical_formula_structural   InH12C2(NCl2)3
_chemical_formula_sum   'In2 H24 C4 N6 Cl12'
_cell_volume   620.97496025
_cell_formula_units_Z   2
loop_
 _symmetry_equiv_pos_site_id
 _symmetry_equiv_pos_as_xyz
  1  'x, y, z'
loop_
 _atom_site_type_symbol
 _atom_site_label
 _atom_site_symmetry_multiplicity
 _atom_site_fract_x
 _atom_site_fract_y
 _atom_site_fract_z
 _atom_site_occupancy
  C  C0  1  0.50916250  0.27216102  0.42269987  1
  C  C1  1  0.87387422  0.23733969  0.05099039  1
  C  C2  1  0.62642855  0.73744980  0.55110121  1
  C  C3  1  0.99088032  0.77210035  0.92261287  1
  N  N4  1  0.56187308  0.27945204  0.61414144  1
  N  N5  1  0.01315262  0.21299862  0.91814289  1
  N  N6  1  0.48703639  0.71282748  0.41853193  1
  N  N7  1  0.93787196  0.77923889  0.11399104  1
  H  H8  1  0.62079931  0.24556674  0.34064037  1
  H  H9  1  0.40863872  0.20123106  0.40323491  1
  H  H10  1  0.46209161  0.36389645  0.38637531  1
  H  H11  1  0.60813708  0.19387418  0.65456517  1
  H  H12  1  0.65762461  0.34648093  0.64102171  1
  H  H13  1  0.46132436  0.30633080  0.69859114  1
  H  H14  1  0.93283881  0.26638992  0.17905528  1
  H  H15  1  0.80377489  0.15031082  0.06667621  1
  H  H16  1  0.78928070  0.31056881  0.00531342  1
  H  H17  1  0.09967784  0.14888913  0.96862445  1
  H  H18  1  0.07927130  0.29391637  0.89453076  1
  H  H19  1  0.96866231  0.17642411  0.79541622  1
  H  H20  1  0.56757625  0.76663419  0.67918804  1
  H  H21  1  0.69663719  0.65050038  0.56691991  1
  H  H22  1  0.71088195  0.81066468  0.50506963  1
  H  H23  1  0.42097830  0.79369220  0.39454158  1
  H  H24  1  0.40046465  0.64887182  0.46941532  1
  H  H25  1  0.53145985  0.67590319  0.29595682  1
  H  H26  1  0.87934198  0.74563674  0.84037484  1
  H  H27  1  0.03812034  0.86384929  0.88650635  1
  H  H28  1  0.09134235  0.70113342  0.90313335  1
  H  H29  1  0.84214358  0.84628373  0.14086320  1
  H  H30  1  0.89146600  0.69363911  0.15421090  1
  H  H31  1  0.03831080  0.80599500  0.19862762  1
  N  N32  1  0.10672393  0.96901739  0.62537375  1
  N  N33  1  0.39320046  0.46925129  0.12575706  1
  In  In34  1  0.47594820  0.95436633  0.98573866  1
  In  In35  1  0.02388831  0.45433618  0.48588827  1
  Cl  Cl36  1  0.41107478  0.31749287  0.01736593  1
  Cl  Cl37  1  0.21479175  0.02259937  0.14923331  1
  Cl  Cl38  1  0.66374611  0.98293530  0.25573078  1
  Cl  Cl39  1  0.02961213  0.22751303  0.48800090  1
  Cl  Cl40  1  0.32227531  0.99741597  0.66368260  1
  Cl  Cl41  1  0.70431687  0.02368102  0.77383383  1
  Cl  Cl42  1  0.47014861  0.72756748  0.98804675  1
  Cl  Cl43  1  0.79543624  0.52345018  0.27402340  1
  Cl  Cl44  1  0.17762494  0.49757467  0.16400563  1
  Cl  Cl45  1  0.08899647  0.81722626  0.51700422  1
  Cl  Cl46  1  0.28500507  0.52242915  0.64956796  1
  Cl  Cl47  1  0.83611015  0.48297084  0.75597941  1
