# generated using pymatgen
data_HgH12C3(I3N)2
_symmetry_space_group_name_H-M   'P 1'
_cell_length_a   8.42663794
_cell_length_b   11.81191839
_cell_length_c   8.43818602
_cell_angle_alpha   89.49900873
_cell_angle_beta   89.70215564
_cell_angle_gamma   89.81904074
_symmetry_Int_Tables_number   1
_chemical_formula_structural   HgH12C3(I3N)2
_chemical_formula_sum   'Hg2 H24 C6 I12 N4'
_cell_volume   839.84529312
_cell_formula_units_Z   2
loop_
 _symmetry_equiv_pos_site_id
 _symmetry_equiv_pos_as_xyz
  1  'x, y, z'
loop_
 _atom_site_type_symbol
 _atom_site_label
 _atom_site_symmetry_multiplicity
 _atom_site_fract_x
 _atom_site_fract_y
 _atom_site_fract_z
 _atom_site_occupancy
  C  C0  1  0.42518294  0.25064061  0.42529345  1
  C  C1  1  0.92500754  0.24426224  0.08438760  1
  C  C2  1  0.57577044  0.74820099  0.58592418  1
  C  C3  1  0.07512040  0.75168256  0.92667752  1
  N  N4  1  0.56606468  0.24639518  0.53041329  1
  N  N5  1  0.06598366  0.24460268  0.97816940  1
  N  N6  1  0.43245486  0.74879485  0.48433202  1
  N  N7  1  0.93311218  0.75012416  0.03184413  1
  H  H8  1  0.46601088  0.25123846  0.30177073  1
  H  H9  1  0.35372555  0.17490152  0.44784237  1
  H  H10  1  0.35603911  0.32677221  0.45140515  1
  H  H11  1  0.63007814  0.17245059  0.50883421  1
  H  H12  1  0.64193916  0.31415394  0.50904669  1
  H  H13  1  0.53487813  0.24705951  0.65036900  1
  H  H14  1  0.96576385  0.25138033  0.20696081  1
  H  H15  1  0.85868634  0.16590134  0.06659330  1
  H  H16  1  0.85100463  0.31772401  0.05502394  1
  H  H17  1  0.14232765  0.17790020  0.00406937  1
  H  H18  1  0.12931011  0.31904395  0.99160038  1
  H  H19  1  0.03475631  0.23897008  0.85837986  1
  H  H20  1  0.53814608  0.75872625  0.70943545  1
  H  H21  1  0.63971345  0.66833387  0.56928222  1
  H  H22  1  0.65098121  0.81959266  0.55087223  1
  H  H23  1  0.37025113  0.82404788  0.49793789  1
  H  H24  1  0.35609723  0.68298960  0.51432105  1
  H  H25  1  0.46103360  0.74135762  0.36388831  1
  H  H26  1  0.03564933  0.75200967  0.80310552  1
  H  H27  1  0.14543449  0.82699575  0.95195773  1
  H  H28  1  0.14491721  0.67511628  0.95034122  1
  H  H29  1  0.85844468  0.81858583  0.00932174  1
  H  H30  1  0.86814423  0.67679263  0.01184939  1
  H  H31  1  0.96336389  0.75134076  0.15180054  1
  C  C32  1  0.50901295  0.02804734  0.92287516  1
  C  C33  1  0.98976025  0.52536067  0.41963348  1
  Hg  Hg34  1  0.97343585  0.05137322  0.40217513  1
  Hg  Hg35  1  0.52872768  0.55253252  0.89855814  1
  I  I36  1  0.49757299  0.22261981  0.94971050  1
  I  I37  1  0.22272894  0.99014828  0.21211417  1
  I  I38  1  0.66878889  0.99977013  0.31497181  1
  I  I39  1  0.99431630  0.25189991  0.56738802  1
  I  I40  1  0.32890402  0.99555592  0.72460281  1
  I  I41  1  0.75674933  0.99452900  0.82164694  1
  I  I42  1  0.50338888  0.75036093  0.07004489  1
  I  I43  1  0.74132631  0.49442785  0.32244309  1
  I  I44  1  0.16888395  0.49130078  0.21927905  1
  I  I45  1  0.00306732  0.72005863  0.44772682  1
  I  I46  1  0.28217360  0.49274735  0.70709265  1
  I  I47  1  0.83579337  0.50125770  0.81698325  1
