# generated using pymatgen
data_TcH12C2(NCl2)3
_symmetry_space_group_name_H-M   'P 1'
_cell_length_a   8.10768376
_cell_length_b   10.63582743
_cell_length_c   6.80677231
_cell_angle_alpha   95.22084324
_cell_angle_beta   90.10101212
_cell_angle_gamma   90.01019868
_symmetry_Int_Tables_number   1
_chemical_formula_structural   TcH12C2(NCl2)3
_chemical_formula_sum   'Tc2 H24 C4 N6 Cl12'
_cell_volume   584.52505029
_cell_formula_units_Z   2
loop_
 _symmetry_equiv_pos_site_id
 _symmetry_equiv_pos_as_xyz
  1  'x, y, z'
loop_
 _atom_site_type_symbol
 _atom_site_label
 _atom_site_symmetry_multiplicity
 _atom_site_fract_x
 _atom_site_fract_y
 _atom_site_fract_z
 _atom_site_occupancy
  C  C0  1  0.60447336  0.30267215  0.44314281  1
  C  C1  1  0.87393869  0.21024445  0.05470558  1
  C  C2  1  0.62530556  0.70904156  0.55339413  1
  C  C3  1  0.89513678  0.80172978  0.94177394  1
  N  N4  1  0.60726574  0.27548348  0.65326998  1
  N  N5  1  0.98343236  0.21836553  0.88173486  1
  N  N6  1  0.51631300  0.71787796  0.37975351  1
  N  N7  1  0.89300236  0.77553822  0.15235590  1
  H  H8  1  0.73034969  0.29483278  0.38704471  1
  H  H9  1  0.52402584  0.23392408  0.36151441  1
  H  H10  1  0.55767500  0.39774146  0.43011600  1
  H  H11  1  0.67043840  0.18913033  0.66040582  1
  H  H12  1  0.66450527  0.34678987  0.74161957  1
  H  H13  1  0.48938103  0.26734340  0.71010620  1
  H  H14  1  0.93961062  0.24690273  0.18843801  1
  H  H15  1  0.84193456  0.11148038  0.06592906  1
  H  H16  1  0.76181697  0.26552965  0.03717496  1
  H  H17  1  0.10776783  0.20876387  0.91870734  1
  H  H18  1  0.97558255  0.30478651  0.82336185  1
  H  H19  1  0.95222222  0.14933572  0.76647631  1
  H  H20  1  0.55927105  0.74516105  0.68690510  1
  H  H21  1  0.65716201  0.61019138  0.56385963  1
  H  H22  1  0.73754947  0.76441683  0.53727351  1
  H  H23  1  0.52449571  0.80456704  0.32227612  1
  H  H24  1  0.39188971  0.70820604  0.41568137  1
  H  H25  1  0.54770256  0.64918976  0.26423045  1
  H  H26  1  0.76954639  0.79117386  0.88491174  1
  H  H27  1  0.93898482  0.89752446  0.92774246  1
  H  H28  1  0.97762553  0.73409304  0.86153055  1
  H  H29  1  0.83510066  0.84681122  0.23971723  1
  H  H30  1  0.83058216  0.68895298  0.16021462  1
  H  H31  1  0.01104298  0.76836726  0.20969824  1
  N  N32  1  0.26041273  0.98655596  0.75188491  1
  N  N33  1  0.24075657  0.48612151  0.25338516  1
  Tc  Tc34  1  0.32595255  0.99105971  0.00243499  1
  Tc  Tc35  1  0.17445244  0.49074466  0.50343313  1
  Cl  Cl36  1  0.36023963  0.21968527  0.02781855  1
  Cl  Cl37  1  0.13057334  0.01077990  0.23780215  1
  Cl  Cl38  1  0.57959788  0.98543984  0.15490223  1
  Cl  Cl39  1  0.18664013  0.27001631  0.52346787  1
  Cl  Cl40  1  0.43429151  0.99390433  0.61679838  1
  Cl  Cl41  1  0.81191630  0.02497706  0.57162430  1
  Cl  Cl42  1  0.31299562  0.77036753  0.02226077  1
  Cl  Cl43  1  0.68857002  0.52494681  0.07084241  1
  Cl  Cl44  1  0.06778844  0.49420920  0.11654574  1
  Cl  Cl45  1  0.14058446  0.71938126  0.52758505  1
  Cl  Cl46  1  0.36940701  0.51024387  0.74004121  1
  Cl  Cl47  1  0.92071423  0.48547627  0.65440380  1
