# generated using pymatgen
data_MoH12C2(NCl2)3
_symmetry_space_group_name_H-M   'P 1'
_cell_length_a   8.63327414
_cell_length_b   10.03982016
_cell_length_c   7.40774253
_cell_angle_alpha   99.90200441
_cell_angle_beta   91.30209138
_cell_angle_gamma   89.70534376
_symmetry_Int_Tables_number   1
_chemical_formula_structural   MoH12C2(NCl2)3
_chemical_formula_sum   'Mo2 H24 C4 N6 Cl12'
_cell_volume   632.34869050
_cell_formula_units_Z   2
loop_
 _symmetry_equiv_pos_site_id
 _symmetry_equiv_pos_as_xyz
  1  'x, y, z'
loop_
 _atom_site_type_symbol
 _atom_site_label
 _atom_site_symmetry_multiplicity
 _atom_site_fract_x
 _atom_site_fract_y
 _atom_site_fract_z
 _atom_site_occupancy
  C  C0  1  0.60596957  0.32547901  0.41469340  1
  C  C1  1  0.83667820  0.20087772  0.96634397  1
  C  C2  1  0.66202261  0.67927605  0.54567499  1
  C  C3  1  0.86929302  0.84160361  0.97696747  1
  N  N4  1  0.67355973  0.29161866  0.58699448  1
  N  N5  1  0.97516388  0.19677919  0.84888865  1
  N  N6  1  0.54472086  0.72800895  0.42000672  1
  N  N7  1  0.89295057  0.79525609  0.15575838  1
  H  H8  1  0.68984585  0.29924737  0.30622561  1
  H  H9  1  0.49989220  0.26712133  0.38093835  1
  H  H10  1  0.58086453  0.43334898  0.43412947  1
  H  H11  1  0.70752025  0.18838672  0.56880172  1
  H  H12  1  0.77137444  0.35223037  0.62841363  1
  H  H13  1  0.59415801  0.31192383  0.69001026  1
  H  H14  1  0.87419148  0.18955008  0.10519061  1
  H  H15  1  0.75937771  0.11746939  0.90845994  1
  H  H16  1  0.77716524  0.29839440  0.97309924  1
  H  H17  1  0.07002187  0.15183728  0.90862963  1
  H  H18  1  0.00480254  0.29254190  0.82588314  1
  H  H19  1  0.95056847  0.13580901  0.72122887  1
  H  H20  1  0.60485412  0.64257031  0.65812226  1
  H  H21  1  0.73145319  0.59977048  0.46569256  1
  H  H22  1  0.73802073  0.76384186  0.60163605  1
  H  H23  1  0.55625514  0.83073592  0.42309040  1
  H  H24  1  0.43169944  0.71372419  0.45649506  1
  H  H25  1  0.56007752  0.67804489  0.28146852  1
  H  H26  1  0.74480042  0.85188851  0.95248562  1
  H  H27  1  0.92853899  0.93793546  0.98152282  1
  H  H28  1  0.91790956  0.76535547  0.86961234  1
  H  H29  1  0.86213173  0.86829487  0.26836861  1
  H  H30  1  0.82420821  0.70819456  0.15080930  1
  H  H31  1  0.00774223  0.77018529  0.17470504  1
  N  N32  1  0.20009928  0.05257849  0.01208759  1
  N  N33  1  0.27167944  0.42079697  0.26946439  1
  Mo  Mo34  1  0.33370801  0.93901393  0.05396256  1
  Mo  Mo35  1  0.14905549  0.45607149  0.45837976  1
  Cl  Cl36  1  0.33965881  0.36424179  0.07428517  1
  Cl  Cl37  1  0.27542767  0.94558558  0.36323550  1
  Cl  Cl38  1  0.56919968  0.03818363  0.17610923  1
  Cl  Cl39  1  0.08659716  0.22693683  0.43336808  1
  Cl  Cl40  1  0.45997831  0.92198876  0.77439817  1
  Cl  Cl41  1  0.81217486  0.99792637  0.53197099  1
  Cl  Cl42  1  0.23022080  0.72429916  0.98214041  1
  Cl  Cl43  1  0.63086153  0.58367187  0.03913238  1
  Cl  Cl44  1  0.93753389  0.47797602  0.25660148  1
  Cl  Cl45  1  0.16267070  0.69257097  0.52002275  1
  Cl  Cl46  1  0.33811128  0.44454698  0.69017746  1
  Cl  Cl47  1  0.95521453  0.48638766  0.71461357  1
