# generated using pymatgen
data_NbH12C2(NCl2)3
_symmetry_space_group_name_H-M   'P 1'
_cell_length_a   8.33857891
_cell_length_b   8.80278879
_cell_length_c   8.39783890
_cell_angle_alpha   92.44648826
_cell_angle_beta   89.87157275
_cell_angle_gamma   90.02638132
_symmetry_Int_Tables_number   1
_chemical_formula_structural   NbH12C2(NCl2)3
_chemical_formula_sum   'Nb2 H24 C4 N6 Cl12'
_cell_volume   615.86101632
_cell_formula_units_Z   2
loop_
 _symmetry_equiv_pos_site_id
 _symmetry_equiv_pos_as_xyz
  1  'x, y, z'
loop_
 _atom_site_type_symbol
 _atom_site_label
 _atom_site_symmetry_multiplicity
 _atom_site_fract_x
 _atom_site_fract_y
 _atom_site_fract_z
 _atom_site_occupancy
  C  C0  1  0.49425551  0.28547385  0.44342613  1
  C  C1  1  0.97144771  0.24309453  0.04130572  1
  C  C2  1  0.52820474  0.74287757  0.54126993  1
  C  C3  1  0.00612293  0.78527783  0.94385908  1
  N  N4  1  0.52821977  0.28546157  0.61596529  1
  N  N5  1  0.01503865  0.21981224  0.87068982  1
  N  N6  1  0.48474709  0.71940228  0.37082552  1
  N  N7  1  0.97251391  0.78630633  0.11668586  1
  H  H8  1  0.60607538  0.27140046  0.37682761  1
  H  H9  1  0.41122985  0.19282353  0.41181434  1
  H  H10  1  0.43682774  0.39302198  0.41713117  1
  H  H11  1  0.56874923  0.18076229  0.65177419  1
  H  H12  1  0.61909138  0.36273383  0.65004974  1
  H  H13  1  0.42710661  0.31395472  0.68173446  1
  H  H14  1  0.07343663  0.29102129  0.10755642  1
  H  H15  1  0.93756971  0.13409477  0.08911581  1
  H  H16  1  0.86803518  0.31925723  0.05093742  1
  H  H17  1  0.11729505  0.15278691  0.85220466  1
  H  H18  1  0.03449131  0.32155500  0.81686161  1
  H  H19  1  0.92099521  0.16692022  0.80893629  1
  H  H20  1  0.42629006  0.79117791  0.60777493  1
  H  H21  1  0.56161732  0.63389073  0.58921812  1
  H  H22  1  0.63185345  0.81880759  0.55041340  1
  H  H23  1  0.46628682  0.82111113  0.31673506  1
  H  H24  1  0.38216687  0.65278473  0.35266840  1
  H  H25  1  0.57866326  0.66594908  0.30902038  1
  H  H26  1  0.89416359  0.77082319  0.87804559  1
  H  H27  1  0.06356601  0.89262285  0.91645867  1
  H  H28  1  0.08904241  0.69245482  0.91231875  1
  H  H29  1  0.88121439  0.86326679  0.15058200  1
  H  H30  1  0.93261931  0.68167420  0.15352842  1
  H  H31  1  0.07358880  0.81600711  0.18160703  1
  N  N32  1  0.91940264  0.71712995  0.60405500  1
  N  N33  1  0.58079876  0.21738329  0.10335232  1
  Nb  Nb34  1  0.49982816  0.03353230  0.00986645  1
  Nb  Nb35  1  -0.00019343  0.53310290  0.51025278  1
  Cl  Cl36  1  0.43938794  0.32040502  0.99130410  1
  Cl  Cl37  1  0.27458588  0.01101131  0.19273308  1
  Cl  Cl38  1  0.69214345  0.98786115  0.24108441  1
  Cl  Cl39  1  0.97515501  0.25603227  0.49243353  1
  Cl  Cl40  1  0.31165026  0.01426736  0.78252381  1
  Cl  Cl41  1  0.70429635  0.02649921  0.79688054  1
  Cl  Cl42  1  0.52285775  0.75635304  0.99240904  1
  Cl  Cl43  1  0.79606758  0.52700208  0.29742814  1
  Cl  Cl44  1  0.18855899  0.51350657  0.28261943  1
  Cl  Cl45  1  0.06155761  0.81985088  0.49175387  1
  Cl  Cl46  1  0.22465125  0.50957165  0.69244499  1
  Cl  Cl47  1  0.80674963  0.48796072  0.74181328  1
