# generated using pymatgen
data_ZrH12C2(NCl2)3
_symmetry_space_group_name_H-M   'P 1'
_cell_length_a   8.63690855
_cell_length_b   8.92999896
_cell_length_c   8.08491997
_cell_angle_alpha   92.24794294
_cell_angle_beta   85.72810954
_cell_angle_gamma   87.23877117
_symmetry_Int_Tables_number   1
_chemical_formula_structural   ZrH12C2(NCl2)3
_chemical_formula_sum   'Zr2 H24 C4 N6 Cl12'
_cell_volume   620.54197208
_cell_formula_units_Z   2
loop_
 _symmetry_equiv_pos_site_id
 _symmetry_equiv_pos_as_xyz
  1  'x, y, z'
loop_
 _atom_site_type_symbol
 _atom_site_label
 _atom_site_symmetry_multiplicity
 _atom_site_fract_x
 _atom_site_fract_y
 _atom_site_fract_z
 _atom_site_occupancy
  C  C0  1  0.48717785  0.30916800  0.43921729  1
  C  C1  1  0.99145190  0.26726072  0.03493009  1
  C  C2  1  0.47390215  0.71056701  0.56751841  1
  C  C3  1  0.02561160  0.78127748  0.98046198  1
  N  N4  1  0.56481696  0.25635683  0.58549867  1
  N  N5  1  0.96294248  0.20379721  0.86871970  1
  N  N6  1  0.45613405  0.72566074  0.38776698  1
  N  N7  1  0.98466961  0.83555809  0.15486184  1
  H  H8  1  0.57629096  0.33928861  0.34484750  1
  H  H9  1  0.41971945  0.21896468  0.39109623  1
  H  H10  1  0.40725380  0.40464151  0.47797628  1
  H  H11  1  0.64716240  0.17117673  0.55045027  1
  H  H12  1  0.62388141  0.34073813  0.64278282  1
  H  H13  1  0.48593151  0.21380011  0.67309979  1
  H  H14  1  0.11403456  0.29126738  0.03962350  1
  H  H15  1  0.95982008  0.18696501  0.12894859  1
  H  H16  1  0.91811662  0.37010284  0.06047009  1
  H  H17  1  0.04528318  0.11968393  0.82992309  1
  H  H18  1  0.97322137  0.28392884  0.78073046  1
  H  H19  1  0.84456274  0.16426847  0.86996913  1
  H  H20  1  0.38529794  0.78171109  0.64000567  1
  H  H21  1  0.46033440  0.59407756  0.59878827  1
  H  H22  1  0.58980437  0.74332514  0.59351414  1
  H  H23  1  0.45346042  0.83689269  0.35648888  1
  H  H24  1  0.35654353  0.67685401  0.34988420  1
  H  H25  1  0.55266264  0.67423887  0.31953861  1
  H  H26  1  0.92138808  0.74154036  0.92725397  1
  H  H27  1  0.07322551  0.87264412  0.90945568  1
  H  H28  1  0.11403074  0.68920873  0.97938460  1
  H  H29  1  0.88718969  0.91024865  0.16852382  1
  H  H30  1  0.95374187  0.74614599  0.22672205  1
  H  H31  1  0.07702744  0.88727937  0.20487502  1
  N  N32  1  0.95716341  0.76546251  0.56808777  1
  N  N33  1  0.66221745  0.12725042  0.89858139  1
  Zr  Zr34  1  0.49937372  0.00577611  0.01355124  1
  Zr  Zr35  1  0.97832271  0.52333293  0.51412498  1
  Cl  Cl36  1  0.56602392  0.28892415  0.99823342  1
  Cl  Cl37  1  0.27134138  0.05314462  0.22049809  1
  Cl  Cl38  1  0.65941464  0.99608560  0.26836573  1
  Cl  Cl39  1  0.95034851  0.25135404  0.46937949  1
  Cl  Cl40  1  0.31681844  0.05655149  0.79030237  1
  Cl  Cl41  1  0.80977678  0.88753186  0.65374262  1
  Cl  Cl42  1  0.50848502  0.73612888  0.97855733  1
  Cl  Cl43  1  0.78387212  0.56149805  0.29452721  1
  Cl  Cl44  1  0.18094570  0.53350771  0.27620077  1
  Cl  Cl45  1  0.11740812  0.86874139  0.52260289  1
  Cl  Cl46  1  0.18005425  0.48069839  0.70896865  1
  Cl  Cl47  1  0.77176625  0.51545119  0.74124503  1
