# generated using pymatgen
data_YH12C2(NCl2)3
_symmetry_space_group_name_H-M   'P 1'
_cell_length_a   8.28004229
_cell_length_b   9.74490159
_cell_length_c   7.94088855
_cell_angle_alpha   97.99720888
_cell_angle_beta   89.97026937
_cell_angle_gamma   90.01997155
_symmetry_Int_Tables_number   1
_chemical_formula_structural   YH12C2(NCl2)3
_chemical_formula_sum   'Y2 H24 C4 N6 Cl12'
_cell_volume   634.50461678
_cell_formula_units_Z   2
loop_
 _symmetry_equiv_pos_site_id
 _symmetry_equiv_pos_as_xyz
  1  'x, y, z'
loop_
 _atom_site_type_symbol
 _atom_site_label
 _atom_site_symmetry_multiplicity
 _atom_site_fract_x
 _atom_site_fract_y
 _atom_site_fract_z
 _atom_site_occupancy
  C  C0  1  0.51991357  0.27903994  0.44378331  1
  C  C1  1  0.91901602  0.21045507  0.02493954  1
  C  C2  1  0.58081800  0.70990812  0.52544105  1
  C  C3  1  0.98017627  0.77941784  0.94341994  1
  N  N4  1  0.54747111  0.29146060  0.62944963  1
  N  N5  1  0.04243275  0.21474013  0.88956371  1
  N  N6  1  0.45793769  0.71466149  0.38976365  1
  N  N7  1  0.95265370  0.79160521  0.12909856  1
  H  H8  1  0.63403823  0.25189631  0.37835054  1
  H  H9  1  0.43009861  0.19781986  0.40688146  1
  H  H10  1  0.47353571  0.37680637  0.41012887  1
  H  H11  1  0.57968918  0.19676307  0.66743155  1
  H  H12  1  0.64226143  0.35993005  0.66814619  1
  H  H13  1  0.44645962  0.33113183  0.69566720  1
  H  H14  1  0.96530667  0.26531200  0.14414177  1
  H  H15  1  0.89568186  0.10285667  0.04072448  1
  H  H16  1  0.80836497  0.25997836  0.98884561  1
  H  H17  1  0.15611266  0.20849622  0.94139548  1
  H  H18  1  0.03394780  0.30626620  0.83844350  1
  H  H19  1  0.03397855  0.12976052  0.78848498  1
  H  H20  1  0.53436084  0.76466873  0.64465107  1
  H  H21  1  0.60369648  0.60221587  0.54100848  1
  H  H22  1  0.69181049  0.75926454  0.48975021  1
  H  H23  1  0.46772667  0.80589505  0.33815084  1
  H  H24  1  0.34396168  0.70951966  0.44135351  1
  H  H25  1  0.46583216  0.62927400  0.28901909  1
  H  H26  1  0.86605108  0.75227625  0.87806947  1
  H  H27  1  0.02648533  0.87727611  0.90987888  1
  H  H28  1  0.06999699  0.69827594  0.90626821  1
  H  H29  1  0.85786701  0.85999648  0.16799402  1
  H  H30  1  0.92042743  0.69683894  0.16697796  1
  H  H31  1  0.05365999  0.83122469  0.19529648  1
  N  N32  1  0.10677175  0.96267126  0.69829201  1
  N  N33  1  0.39325500  0.46253216  0.19916553  1
  Y  Y34  1  0.48564229  0.96799272  0.99125481  1
  Y  Y35  1  0.01405427  0.46794302  0.49128345  1
  Cl  Cl36  1  0.45306008  0.33858941  0.02864693  1
  Cl  Cl37  1  0.22952611  0.02924538  0.15870041  1
  Cl  Cl38  1  0.66577551  0.98599303  0.25727604  1
  Cl  Cl39  1  0.00325930  0.21348911  0.46752932  1
  Cl  Cl40  1  0.31710859  0.99390672  0.67895977  1
  Cl  Cl41  1  0.68720252  0.02605705  0.76247376  1
  Cl  Cl42  1  0.49510039  0.71354076  0.96780384  1
  Cl  Cl43  1  0.81289253  0.52633171  0.26249942  1
  Cl  Cl44  1  0.18306387  0.49400121  0.17922563  1
  Cl  Cl45  1  0.04753061  0.83812717  0.52816099  1
  Cl  Cl46  1  0.27010868  0.52824197  0.65903373  1
  Cl  Cl47  1  0.83390167  0.48638345  0.75747175  1
