# generated using pymatgen
data_SrH12C2(NCl2)3
_symmetry_space_group_name_H-M   'P 1'
_cell_length_a   7.95793771
_cell_length_b   10.84922503
_cell_length_c   8.19003985
_cell_angle_alpha   83.27793716
_cell_angle_beta   93.29180720
_cell_angle_gamma   87.24721993
_symmetry_Int_Tables_number   1
_chemical_formula_structural   SrH12C2(NCl2)3
_chemical_formula_sum   'Sr2 H24 C4 N6 Cl12'
_cell_volume   700.01799654
_cell_formula_units_Z   2
loop_
 _symmetry_equiv_pos_site_id
 _symmetry_equiv_pos_as_xyz
  1  'x, y, z'
loop_
 _atom_site_type_symbol
 _atom_site_label
 _atom_site_symmetry_multiplicity
 _atom_site_fract_x
 _atom_site_fract_y
 _atom_site_fract_z
 _atom_site_occupancy
  C  C0  1  0.36078564  0.38359766  0.21696676  1
  C  C1  1  0.90605666  0.25531723  0.11596948  1
  C  C2  1  0.57807259  0.75316330  0.57333591  1
  C  C3  1  0.16560776  0.79492376  0.79672381  1
  N  N4  1  0.29153668  0.38942566  0.67548649  1
  N  N5  1  0.86594132  0.21553536  0.95169418  1
  N  N6  1  0.49651209  0.72941998  0.41586769  1
  N  N7  1  0.28756541  0.89683000  0.20415302  1
  H  H8  1  0.36380082  0.07315230  0.45523464  1
  H  H9  1  0.37792362  0.33414213  0.62401611  1
  H  H10  1  0.45861160  0.37968409  0.13153752  1
  H  H11  1  0.65790885  0.01852756  0.37219345  1
  H  H12  1  0.81192061  0.29488257  0.48958130  1
  H  H13  1  0.25748642  0.33413830  0.77799071  1
  H  H14  1  0.04023294  0.27207431  0.12969344  1
  H  H15  1  0.87334645  0.18303454  0.21137605  1
  H  H16  1  0.83114108  0.34139017  0.12419386  1
  H  H17  1  0.92321912  0.13092457  0.93556503  1
  H  H18  1  0.89778366  0.28492562  0.86088938  1
  H  H19  1  0.73517972  0.20638314  0.93633623  1
  H  H20  1  0.48114704  0.79164993  0.64633700  1
  H  H21  1  0.63988276  0.66959119  0.64568658  1
  H  H22  1  0.67382873  0.82155612  0.55272464  1
  H  H23  1  0.36875505  0.84658338  0.30299370  1
  H  H24  1  0.40552781  0.66673118  0.43742177  1
  H  H25  1  0.58216319  0.69090686  0.34515491  1
  H  H26  1  0.03649628  0.76700676  0.77993361  1
  H  H27  1  0.09701355  0.96670723  0.76899509  1
  H  H28  1  0.26486830  0.72039067  0.82219194  1
  H  H29  1  0.72230184  0.77261127  0.94746973  1
  H  H30  1  -0.00184173  0.56049486  0.98031695  1
  H  H31  1  0.18863910  0.83891778  0.19610376  1
  N  N32  1  0.20425571  0.90864414  0.79394958  1
  N  N33  1  0.25013366  0.38299492  0.30317446  1
  Sr  Sr34  1  0.47095599  0.95731752  0.95245766  1
  Sr  Sr35  1  0.02857729  0.49098762  0.47804372  1
  Cl  Cl36  1  0.47749822  0.20712729  0.97140500  1
  Cl  Cl37  1  0.19105213  0.02565333  0.27886605  1
  Cl  Cl38  1  0.73588781  0.96336639  0.26222114  1
  Cl  Cl39  1  0.95401455  0.20256901  0.55807973  1
  Cl  Cl40  1  0.49249110  0.10378628  0.54994494  1
  Cl  Cl41  1  0.80380209  0.92536449  0.85825562  1
  Cl  Cl42  1  0.60982032  0.68870942  0.01256002  1
  Cl  Cl43  1  0.68957501  0.41422959  0.41169050  1
  Cl  Cl44  1  0.04495798  0.62345788  0.11211400  1
  Cl  Cl45  1  0.07651235  0.73700088  0.46851679  1
  Cl  Cl46  1  0.41319380  0.49929790  0.75916121  1
  Cl  Cl47  1  0.91788080  0.48495215  0.80572143  1
