# generated using pymatgen
data_AsH12C2(NCl2)3
_symmetry_space_group_name_H-M   'P 1'
_cell_length_a   8.10960498
_cell_length_b   9.57078625
_cell_length_c   7.80676669
_cell_angle_alpha   92.95025705
_cell_angle_beta   90.40344927
_cell_angle_gamma   90.42341025
_symmetry_Int_Tables_number   1
_chemical_formula_structural   AsH12C2(NCl2)3
_chemical_formula_sum   'As2 H24 C4 N6 Cl12'
_cell_volume   605.08817761
_cell_formula_units_Z   2
loop_
 _symmetry_equiv_pos_site_id
 _symmetry_equiv_pos_as_xyz
  1  'x, y, z'
loop_
 _atom_site_type_symbol
 _atom_site_label
 _atom_site_symmetry_multiplicity
 _atom_site_fract_x
 _atom_site_fract_y
 _atom_site_fract_z
 _atom_site_occupancy
  C  C0  1  0.48671273  0.27524637  0.44068981  1
  C  C1  1  0.96010519  0.21355908  0.03768000  1
  C  C2  1  0.57197646  0.72865239  0.51685043  1
  C  C3  1  0.99390372  0.77715812  0.93791609  1
  N  N4  1  0.53582041  0.28548506  0.62382675  1
  N  N5  1  0.07210256  0.22158880  0.88918370  1
  N  N6  1  0.42807585  0.69713953  0.40277339  1
  N  N7  1  0.95117716  0.77824891  0.12219875  1
  H  H8  1  0.59331175  0.24319139  0.36430966  1
  H  H9  1  0.38695239  0.19822479  0.42246089  1
  H  H10  1  0.44539400  0.37779232  0.40301033  1
  H  H11  1  0.57212981  0.18924795  0.66868232  1
  H  H12  1  0.63589140  0.35306850  0.64559328  1
  H  H13  1  0.44052604  0.32665082  0.69839773  1
  H  H14  1  0.03144622  0.23331982  0.15542271  1
  H  H15  1  0.90558949  0.10907703  0.03443913  1
  H  H16  1  0.86318652  0.29161644  0.02770098  1
  H  H17  1  0.17501635  0.16087655  0.90536304  1
  H  H18  1  0.11324753  0.32269259  0.87142708  1
  H  H19  1  0.01650373  0.18317640  0.77588077  1
  H  H20  1  0.53722075  0.80786840  0.61513103  1
  H  H21  1  0.60839374  0.63299128  0.57701064  1
  H  H22  1  0.67369875  0.76773113  0.44161035  1
  H  H23  1  0.39020749  0.78472630  0.34044618  1
  H  H24  1  0.33025264  0.66559020  0.47618936  1
  H  H25  1  0.44984467  0.61469180  0.30804467  1
  H  H26  1  0.88370741  0.75008187  0.86198067  1
  H  H27  1  0.03701758  0.88129173  0.90651511  1
  H  H28  1  0.09081714  0.70016606  0.91172440  1
  H  H29  1  0.85590683  0.84794614  0.15124663  1
  H  H30  1  0.91271908  0.68057056  0.16028591  1
  H  H31  1  0.05122199  0.81255068  0.19725502  1
  N  N32  1  0.08868209  0.98427659  0.63833839  1
  N  N33  1  0.39651507  0.49687647  0.13086572  1
  As  As34  1  0.49106261  0.98687318  0.00486730  1
  As  As35  1  0.00897477  0.48459581  0.50419771  1
  Cl  Cl36  1  0.45579346  0.33069714  0.04400151  1
  Cl  Cl37  1  0.25657065  0.98052114  0.20568203  1
  Cl  Cl38  1  0.67890623  0.99814729  0.23586346  1
  Cl  Cl39  1  0.01818970  0.25044762  0.48252589  1
  Cl  Cl40  1  0.30260797  0.99511446  0.67493263  1
  Cl  Cl41  1  0.70077050  0.02148219  0.77887303  1
  Cl  Cl42  1  0.49768085  0.75585230  0.97362285  1
  Cl  Cl43  1  0.79433632  0.50083138  0.28393002  1
  Cl  Cl44  1  0.18395287  0.49550724  0.17064136  1
  Cl  Cl45  1  0.04031339  0.82057347  0.53456446  1
  Cl  Cl46  1  0.25367340  0.50147937  0.70406778  1
  Cl  Cl47  1  0.83191645  0.48458360  0.74207564  1
