# generated using pymatgen
data_GaH12C2(NCl2)3
_symmetry_space_group_name_H-M   'P 1'
_cell_length_a   8.51314522
_cell_length_b   9.44835725
_cell_length_c   8.02402094
_cell_angle_alpha   98.77170754
_cell_angle_beta   90.02638520
_cell_angle_gamma   90.04361522
_symmetry_Int_Tables_number   1
_chemical_formula_structural   GaH12C2(NCl2)3
_chemical_formula_sum   'Ga2 H24 C4 N6 Cl12'
_cell_volume   637.86484773
_cell_formula_units_Z   2
loop_
 _symmetry_equiv_pos_site_id
 _symmetry_equiv_pos_as_xyz
  1  'x, y, z'
loop_
 _atom_site_type_symbol
 _atom_site_label
 _atom_site_symmetry_multiplicity
 _atom_site_fract_x
 _atom_site_fract_y
 _atom_site_fract_z
 _atom_site_occupancy
  C  C0  1  0.50420818  0.26330777  0.47467849  1
  C  C1  1  0.97050776  0.20891619  0.02659980  1
  C  C2  1  0.53019531  0.70924301  0.52664111  1
  C  C3  1  0.99528792  0.76337212  0.97477443  1
  N  N4  1  0.47453178  0.31258515  0.65717219  1
  N  N5  1  0.01327265  0.21379328  0.85040170  1
  N  N6  1  0.48731384  0.71390486  0.35039236  1
  N  N7  1  0.02475486  0.81237047  0.15740859  1
  H  H8  1  0.62959308  0.24122071  0.45552226  1
  H  H9  1  0.43594459  0.16628928  0.43308919  1
  H  H10  1  0.46413320  0.34639234  0.40314348  1
  H  H11  1  0.48646300  0.22948335  0.72731238  1
  H  H12  1  0.55746707  0.38959767  0.70394790  1
  H  H13  1  0.36404114  0.35818560  0.67556662  1
  H  H14  1  0.07718441  0.20949625  0.10249108  1
  H  H15  1  0.90565799  0.10991446  0.03431901  1
  H  H16  1  0.89691635  0.29950694  0.08257003  1
  H  H17  1  0.07170769  0.06333284  0.75456579  1
  H  H18  1  0.08986024  0.29656195  0.84454115  1
  H  H19  1  0.91654452  0.23586286  0.78306377  1
  H  H20  1  0.42356569  0.70965731  0.60246845  1
  H  H21  1  0.59512635  0.61040151  0.53451641  1
  H  H22  1  0.60372594  0.80003295  0.58258238  1
  H  H23  1  0.41068723  0.79651162  0.34436135  1
  H  H24  1  0.42864140  0.56343929  0.25464359  1
  H  H25  1  0.58398344  0.73605144  0.28304269  1
  H  H26  1  0.86987289  0.74138235  0.95518896  1
  H  H27  1  0.03575929  0.84653625  0.90352512  1
  H  H28  1  0.06332962  0.66633949  0.93319458  1
  H  H29  1  0.94210543  0.88953791  0.20405324  1
  H  H30  1  0.01227902  0.72919270  0.22736940  1
  H  H31  1  0.13544143  0.85768102  0.17619789  1
  N  N32  1  0.11541079  0.95333685  0.70561110  1
  N  N33  1  0.38436293  0.45355890  0.20566334  1
  Ga  Ga34  1  0.54276210  0.94817589  0.01743646  1
  Ga  Ga35  1  0.95749867  0.44821237  0.51751552  1
  Cl  Cl36  1  0.53249743  0.37385302  0.07023797  1
  Cl  Cl37  1  0.31308300  0.03343250  0.11444324  1
  Cl  Cl38  1  0.70470222  0.98433746  0.23911220  1
  Cl  Cl39  1  0.98112060  0.21718454  0.43990181  1
  Cl  Cl40  1  0.28093196  0.99000688  0.58962428  1
  Cl  Cl41  1  0.64313464  0.05425148  0.81381790  1
  Cl  Cl42  1  0.52010130  0.71702927  0.93972185  1
  Cl  Cl43  1  0.85648534  0.55356942  0.31362188  1
  Cl  Cl44  1  0.21879810  0.49082713  0.09004148  1
  Cl  Cl45  1  0.96656783  0.87402054  0.57054115  1
  Cl  Cl46  1  0.18696689  0.53445844  0.61470012  1
  Cl  Cl47  1  0.79549664  0.48372261  0.73896091  1
