# generated using pymatgen
data_CoH12C2(NCl2)3
_symmetry_space_group_name_H-M   'P 1'
_cell_length_a   7.67083902
_cell_length_b   11.81053457
_cell_length_c   6.22443764
_cell_angle_alpha   97.14386574
_cell_angle_beta   89.79231049
_cell_angle_gamma   89.95629609
_symmetry_Int_Tables_number   1
_chemical_formula_structural   CoH12C2(NCl2)3
_chemical_formula_sum   'Co2 H24 C4 N6 Cl12'
_cell_volume   559.53182223
_cell_formula_units_Z   2
loop_
 _symmetry_equiv_pos_site_id
 _symmetry_equiv_pos_as_xyz
  1  'x, y, z'
loop_
 _atom_site_type_symbol
 _atom_site_label
 _atom_site_symmetry_multiplicity
 _atom_site_fract_x
 _atom_site_fract_y
 _atom_site_fract_z
 _atom_site_occupancy
  C  C0  1  0.44121105  0.20912766  0.43775792  1
  C  C1  1  0.94331358  0.29074382  0.06200051  1
  C  C2  1  0.55469035  0.79755373  0.57766036  1
  C  C3  1  0.05695678  0.70332963  0.92272003  1
  N  N4  1  0.62293953  0.23286526  0.50627189  1
  N  N5  1  0.12521130  0.26657490  0.99276759  1
  N  N6  1  0.40473203  0.72015763  0.52639894  1
  N  N7  1  0.90568295  0.78014435  0.97289695  1
  H  H8  1  0.44040283  0.17228976  0.26777504  1
  H  H9  1  0.38499366  0.14895580  0.53810288  1
  H  H10  1  0.36728611  0.28899543  0.45888000  1
  H  H11  1  0.70387030  0.16469172  0.45204096  1
  H  H12  1  0.67237559  0.30773047  0.45341996  1
  H  H13  1  0.62735668  0.24721750  0.67472324  1
  H  H14  1  0.94192192  0.32723738  0.23220074  1
  H  H15  1  0.86913030  0.21109877  0.04034991  1
  H  H16  1  0.88782114  0.35128609  0.96226223  1
  H  H17  1  0.17431895  0.19181219  0.04648553  1
  H  H18  1  0.20610718  0.33468892  0.04575019  1
  H  H19  1  0.12973700  0.25163390  0.82434806  1
  H  H20  1  0.53594400  0.84708720  0.73595976  1
  H  H21  1  0.67301934  0.74586965  0.57791874  1
  H  H22  1  0.56767401  0.85486649  0.45327470  1
  H  H23  1  0.28534364  0.76261782  0.53304399  1
  H  H24  1  0.39521480  0.65544224  0.62612336  1
  H  H25  1  0.41500511  0.67977799  0.36863860  1
  H  H26  1  0.03954641  0.65301258  0.76509474  1
  H  H27  1  0.17454945  0.75554318  0.92149294  1
  H  H28  1  0.07022700  0.64673780  0.04818757  1
  H  H29  1  0.89568546  0.84420082  0.87194604  1
  H  H30  1  0.78689518  0.73712626  0.96682533  1
  H  H31  1  0.91438489  0.82129568  0.13010160  1
  N  N32  1  0.27685813  0.05152077  0.02325249  1
  N  N33  1  0.77724093  0.44775525  0.47885312  1
  Co  Co34  1  0.99946800  0.00014555  0.50369984  1
  Co  Co35  1  0.50169931  0.49980217  0.99621186  1
  Cl  Cl36  1  0.53372405  0.31332979  0.98813730  1
  Cl  Cl37  1  0.22197144  0.95923691  0.21049861  1
  Cl  Cl38  1  0.77677094  0.99945698  0.27565493  1
  Cl  Cl39  1  0.03135608  0.18660412  0.51289073  1
  Cl  Cl40  1  0.24950680  0.98723966  0.75901288  1
  Cl  Cl41  1  0.82087490  0.01556427  0.78061581  1
  Cl  Cl42  1  0.51077671  0.69311600  0.03091390  1
  Cl  Cl43  1  0.72270874  0.54089402  0.29281672  1
  Cl  Cl44  1  0.27641014  0.50060649  0.22337971  1
  Cl  Cl45  1  0.00898968  0.80675869  0.46941276  1
  Cl  Cl46  1  0.32600500  0.48451165  0.71811644  1
  Cl  Cl47  1  0.75211437  0.51182333  0.74340920  1
