# generated using pymatgen
data_ScH12C2(NCl2)3
_symmetry_space_group_name_H-M   'P 1'
_cell_length_a   7.93866298
_cell_length_b   10.13152670
_cell_length_c   7.69954773
_cell_angle_alpha   95.62386658
_cell_angle_beta   90.04191575
_cell_angle_gamma   89.97962669
_symmetry_Int_Tables_number   1
_chemical_formula_structural   ScH12C2(NCl2)3
_chemical_formula_sum   'Sc2 H24 C4 N6 Cl12'
_cell_volume   616.29960396
_cell_formula_units_Z   2
loop_
 _symmetry_equiv_pos_site_id
 _symmetry_equiv_pos_as_xyz
  1  'x, y, z'
loop_
 _atom_site_type_symbol
 _atom_site_label
 _atom_site_symmetry_multiplicity
 _atom_site_fract_x
 _atom_site_fract_y
 _atom_site_fract_z
 _atom_site_occupancy
  C  C0  1  0.52366882  0.26836867  0.43507908  1
  C  C1  1  0.90854026  0.21988352  0.03216912  1
  C  C2  1  0.59142408  0.71990373  0.53186545  1
  C  C3  1  0.97649033  0.76832284  0.93503318  1
  N  N4  1  0.54812001  0.28580299  0.62699096  1
  N  N5  1  0.03719002  0.21568985  0.89179898  1
  N  N6  1  0.46244339  0.71595757  0.39164647  1
  N  N7  1  0.95185083  0.78563723  0.12688358  1
  H  H8  1  0.64372750  0.23849967  0.37384460  1
  H  H9  1  0.42885289  0.19134314  0.40311625  1
  H  H10  1  0.48012262  0.36234080  0.39037452  1
  H  H11  1  0.57753685  0.19649091  0.67664084  1
  H  H12  1  0.64719173  0.35143433  0.66169298  1
  H  H13  1  0.44241655  0.32691471  0.68925120  1
  H  H14  1  0.95596967  0.28160860  0.14555693  1
  H  H15  1  0.88595214  0.11959139  0.06701062  1
  H  H16  1  0.79212423  0.26254067  0.98664829  1
  H  H17  1  0.15534179  0.20639073  0.94549322  1
  H  H18  1  0.03307355  0.30199834  0.83066330  1
  H  H19  1  0.02381078  0.13347881  0.79493565  1
  H  H20  1  0.54438998  0.78169020  0.64533885  1
  H  H21  1  0.61387962  0.61954716  0.56662227  1
  H  H22  1  0.70780865  0.76233960  0.48621634  1
  H  H23  1  0.46658118  0.80230097  0.33055019  1
  H  H24  1  0.34440266  0.70686665  0.44543460  1
  H  H25  1  0.47554893  0.63373410  0.29473138  1
  H  H26  1  0.85649670  0.73851553  0.87348124  1
  H  H27  1  0.02003976  0.86231432  0.89053010  1
  H  H28  1  0.07135463  0.69129152  0.90322225  1
  H  H29  1  0.85280207  0.85133714  0.16146014  1
  H  H30  1  0.92232820  0.69631188  0.17636586  1
  H  H31  1  0.05751537  0.82661183  0.18946694  1
  N  N32  1  0.09831035  0.97591851  0.69731222  1
  N  N33  1  0.40151688  0.47610329  0.19739755  1
  Sc  Sc34  1  0.47634134  0.95569389  0.98826427  1
  Sc  Sc35  1  0.02383749  0.45573981  0.48833263  1
  Cl  Cl36  1  0.45157835  0.35013548  0.03285993  1
  Cl  Cl37  1  0.23205043  0.02595434  0.14668000  1
  Cl  Cl38  1  0.65501433  0.97801546  0.24375496  1
  Cl  Cl39  1  0.03775010  0.22801146  0.46518902  1
  Cl  Cl40  1  0.31787185  0.00039838  0.69214688  1
  Cl  Cl41  1  0.68304460  0.02337907  0.78396294  1
  Cl  Cl42  1  0.46314830  0.72794917  0.96496281  1
  Cl  Cl43  1  0.81687421  0.52332652  0.28388710  1
  Cl  Cl44  1  0.18189535  0.50040372  0.19217667  1
  Cl  Cl45  1  0.04830487  0.84983571  0.53286449  1
  Cl  Cl46  1  0.26818103  0.52624030  0.64668710  1
  Cl  Cl47  1  0.84530849  0.47791375  0.74370265  1
