# generated using pymatgen
data_HfH12C3(I3N)2
_symmetry_space_group_name_H-M   'P 1'
_cell_length_a   8.39181833
_cell_length_b   11.01898367
_cell_length_c   8.89151422
_cell_angle_alpha   85.06266875
_cell_angle_beta   90.02035926
_cell_angle_gamma   89.98876758
_symmetry_Int_Tables_number   1
_chemical_formula_structural   HfH12C3(I3N)2
_chemical_formula_sum   'Hf2 H24 C6 I12 N4'
_cell_volume   819.14130288
_cell_formula_units_Z   2
loop_
 _symmetry_equiv_pos_site_id
 _symmetry_equiv_pos_as_xyz
  1  'x, y, z'
loop_
 _atom_site_type_symbol
 _atom_site_label
 _atom_site_symmetry_multiplicity
 _atom_site_fract_x
 _atom_site_fract_y
 _atom_site_fract_z
 _atom_site_occupancy
  C  C0  1  0.46783845  0.23902522  0.43690341  1
  C  C1  1  0.00250161  0.26430865  0.07951978  1
  C  C2  1  0.49711297  0.76399393  0.57912936  1
  C  C3  1  0.03258071  0.73894197  0.93742609  1
  N  N4  1  0.57384786  0.24090317  0.56570402  1
  N  N5  1  0.05262570  0.24896047  0.92193969  1
  N  N6  1  0.44745475  0.74944214  0.42119589  1
  N  N7  1  0.92603208  0.74097235  0.06573501  1
  H  H8  1  0.52404992  0.20507780  0.33632785  1
  H  H9  1  0.36505110  0.18048542  0.46700969  1
  H  H10  1  0.42246640  0.33104914  0.40424683  1
  H  H11  1  0.60725401  0.15472789  0.60544465  1
  H  H12  1  0.67715899  0.28565870  0.53469065  1
  H  H13  1  0.53226681  0.34925931  0.73017277  1
  H  H14  1  0.10840777  0.28164392  0.14613316  1
  H  H15  1  0.94362116  0.18065117  0.12596902  1
  H  H16  1  0.91981370  0.34131683  0.07852001  1
  H  H17  1  0.13759530  0.18069780  0.91661255  1
  H  H18  1  0.10125635  0.32858969  0.86837041  1
  H  H19  1  0.95732021  0.22384591  0.85694224  1
  H  H20  1  0.39094745  0.78069703  0.64565757  1
  H  H21  1  0.55626849  0.68025242  0.62501686  1
  H  H22  1  0.57942767  0.84114134  0.57902180  1
  H  H23  1  0.39840591  0.82916169  0.36819615  1
  H  H24  1  0.36296941  0.68093397  0.41494500  1
  H  H25  1  0.54307391  0.72513530  0.35614346  1
  H  H26  1  0.97684030  0.70493131  0.83665102  1
  H  H27  1  0.07805958  0.83094715  0.90487116  1
  H  H28  1  0.13527137  0.68039630  0.96806764  1
  H  H29  1  0.82295437  0.78591632  0.03425920  1
  H  H30  1  0.89229551  0.65484394  0.10530240  1
  H  H31  1  0.96763538  0.84904613  0.23048556  1
  C  C32  1  0.96455896  0.91041916  0.32524301  1
  C  C33  1  0.53538881  0.41054261  0.82501965  1
  Hf  Hf34  1  0.50861498  0.99424088  0.99324920  1
  Hf  Hf35  1  0.99129131  0.49423014  0.49374387  1
  I  I36  1  0.52365183  0.26888461  0.02015305  1
  I  I37  1  0.27144058  0.01264600  0.21602171  1
  I  I38  1  0.71665189  0.98934455  0.28487382  1
  I  I39  1  0.00258283  0.24545802  0.50420363  1
  I  I40  1  0.29792543  0.02803811  0.75617434  1
  I  I41  1  0.78885433  0.01447795  0.82580788  1
  I  I42  1  0.49750336  0.74545079  0.00396178  1
  I  I43  1  0.71118313  0.51455738  0.32595714  1
  I  I44  1  0.20217258  0.52817299  0.25688513  1
  I  I45  1  0.97619072  0.76891165  0.52054872  1
  I  I46  1  0.22825788  0.51240605  0.71683862  1
  I  I47  1  0.78334994  0.48934300  0.78500412  1
