# generated using pymatgen
data_PH12C2(NCl2)3
_symmetry_space_group_name_H-M   'P 1'
_cell_length_a   8.15840318
_cell_length_b   9.42728320
_cell_length_c   7.84103738
_cell_angle_alpha   91.36473514
_cell_angle_beta   89.99967042
_cell_angle_gamma   89.99667895
_symmetry_Int_Tables_number   1
_chemical_formula_structural   PH12C2(NCl2)3
_chemical_formula_sum   'P2 H24 C4 N6 Cl12'
_cell_volume   602.89548435
_cell_formula_units_Z   2
loop_
 _symmetry_equiv_pos_site_id
 _symmetry_equiv_pos_as_xyz
  1  'x, y, z'
loop_
 _atom_site_type_symbol
 _atom_site_label
 _atom_site_symmetry_multiplicity
 _atom_site_fract_x
 _atom_site_fract_y
 _atom_site_fract_z
 _atom_site_occupancy
  C  C0  1  0.50081574  0.27381116  0.44194112  1
  C  C1  1  0.95366715  0.22171633  0.01916717  1
  C  C2  1  0.54622314  0.72170185  0.51919561  1
  C  C3  1  0.99929679  0.77383207  0.94192810  1
  N  N4  1  0.53080693  0.28705166  0.62809578  1
  N  N5  1  0.09514063  0.19523188  0.90456323  1
  N  N6  1  0.40478955  0.69517992  0.40456073  1
  N  N7  1  0.96926173  0.78703131  0.12807901  1
  H  H8  1  0.61409788  0.24117897  0.37823522  1
  H  H9  1  0.40439006  0.19515245  0.41792183  1
  H  H10  1  0.46258194  0.37710482  0.39521141  1
  H  H11  1  0.55449829  0.18957478  0.68165808  1
  H  H12  1  0.63175642  0.35105005  0.65406852  1
  H  H13  1  0.43027847  0.33637522  0.68805241  1
  H  H14  1  0.99404524  0.28423189  0.13024884  1
  H  H15  1  0.90607022  0.12008180  0.06035745  1
  H  H16  1  0.85836784  0.27879931  0.95091016  1
  H  H17  1  0.19016713  0.15281803  0.97480726  1
  H  H18  1  0.13716425  0.28808172  0.85066165  1
  H  H19  1  0.06673115  0.11881250  0.80424733  1
  H  H20  1  0.50575384  0.78408324  0.63034716  1
  H  H21  1  0.59385533  0.62000183  0.56031220  1
  H  H22  1  0.64150407  0.77883078  0.45107724  1
  H  H23  1  0.36281016  0.78812872  0.35060355  1
  H  H24  1  0.30975759  0.65283859  0.47466839  1
  H  H25  1  0.43325833  0.61882459  0.30419964  1
  H  H26  1  0.88602303  0.74120437  0.87819357  1
  H  H27  1  0.03755313  0.87709114  0.89520660  1
  H  H28  1  0.09571874  0.69513006  0.91793786  1
  H  H29  1  0.86827756  0.85106703  0.15401899  1
  H  H30  1  0.94557920  0.68961035  0.18163506  1
  H  H31  1  0.06976374  0.83640693  0.18805345  1
  N  N32  1  0.08818103  0.00842599  0.62626273  1
  N  N33  1  0.41182859  0.50841083  0.12624974  1
  P  P34  1  0.49680550  0.98513631  0.99651029  1
  P  P35  1  0.00319112  0.48515436  0.49652965  1
  Cl  Cl36  1  0.48962879  0.34549602  0.04615402  1
  Cl  Cl37  1  0.25449381  0.99215409  0.20820300  1
  Cl  Cl38  1  0.66293903  0.99419898  0.21199168  1
  Cl  Cl39  1  0.02034281  0.26663632  0.47928270  1
  Cl  Cl40  1  0.30170298  0.99140940  0.65686435  1
  Cl  Cl41  1  0.69287937  0.00555258  0.79478271  1
  Cl  Cl42  1  0.47960613  0.76662118  0.97928727  1
  Cl  Cl43  1  0.80712387  0.50564293  0.29479085  1
  Cl  Cl44  1  0.19831364  0.49135327  0.15687171  1
  Cl  Cl45  1  0.01044185  0.84550375  0.54614446  1
  Cl  Cl46  1  0.24549092  0.49208694  0.70821117  1
  Cl  Cl47  1  0.83704903  0.49425997  0.71199563  1
