# generated using pymatgen
data_SiH12C2(NCl2)3
_symmetry_space_group_name_H-M   'P 1'
_cell_length_a   8.59527545
_cell_length_b   10.19363791
_cell_length_c   7.51904483
_cell_angle_alpha   103.71479059
_cell_angle_beta   85.30741731
_cell_angle_gamma   90.61215402
_symmetry_Int_Tables_number   1
_chemical_formula_structural   SiH12C2(NCl2)3
_chemical_formula_sum   'Si2 H24 C4 N6 Cl12'
_cell_volume   637.84228249
_cell_formula_units_Z   2
loop_
 _symmetry_equiv_pos_site_id
 _symmetry_equiv_pos_as_xyz
  1  'x, y, z'
loop_
 _atom_site_type_symbol
 _atom_site_label
 _atom_site_symmetry_multiplicity
 _atom_site_fract_x
 _atom_site_fract_y
 _atom_site_fract_z
 _atom_site_occupancy
  C  C0  1  0.52527060  0.30075136  0.47423335  1
  C  C1  1  0.85703829  0.18871050  0.04960771  1
  C  C2  1  0.58812966  0.66603886  0.53976586  1
  C  C3  1  0.93385267  0.82543389  0.97364981  1
  N  N4  1  0.54564876  0.22563476  0.61719236  1
  N  N5  1  0.97187332  0.20185045  0.89972103  1
  N  N6  1  0.51082850  0.69221266  0.38288696  1
  N  N7  1  0.95664138  0.81910602  0.16505789  1
  H  H8  1  0.63825220  0.32000515  0.40693696  1
  H  H9  1  0.45329502  0.24054346  0.37227959  1
  H  H10  1  0.46375010  0.39617844  0.53635356  1
  H  H11  1  0.64043982  0.15708035  0.57976191  1
  H  H12  1  0.56671747  0.28998457  0.74029123  1
  H  H13  1  0.43652847  0.16668770  0.63583100  1
  H  H14  1  0.91417282  0.19417751  0.17712332  1
  H  H15  1  0.80192119  0.08953411  0.01345340  1
  H  H16  1  0.76341468  0.26610928  0.08041234  1
  H  H17  1  0.18848573  0.12322358  0.74800174  1
  H  H18  1  0.99652101  0.30168508  0.91037377  1
  H  H19  1  0.92486275  0.16699841  0.77599373  1
  H  H20  1  0.50247900  0.67105797  0.65676003  1
  H  H21  1  0.64225818  0.56631589  0.49510492  1
  H  H22  1  0.67924584  0.74148695  0.57523259  1
  H  H23  1  0.45539778  0.78547602  0.41536534  1
  H  H24  1  0.42974036  0.61637378  0.32994757  1
  H  H25  1  0.59758764  0.68483048  0.27531661  1
  H  H26  1  0.81046342  0.80795757  0.95064799  1
  H  H27  1  0.96902559  0.92361379  0.94992788  1
  H  H28  1  0.00384697  0.74538337  0.87937887  1
  H  H29  1  0.89982640  0.89681905  0.26932111  1
  H  H30  1  0.91214899  0.72520349  0.18453220  1
  H  H31  1  0.07277515  0.82501052  0.18976484  1
  N  N32  1  0.27208659  0.09680255  0.63678537  1
  N  N33  1  0.33064898  0.49836630  0.16516572  1
  Si  Si34  1  0.42583614  0.93568692  0.03841100  1
  Si  Si35  1  0.03535937  0.44997753  0.48885719  1
  Cl  Cl36  1  0.41540011  0.34191312  0.05970059  1
  Cl  Cl37  1  0.22932302  0.04884316  0.09723808  1
  Cl  Cl38  1  0.56900061  0.97522924  0.24678678  1
  Cl  Cl39  1  0.12213264  0.26314784  0.49239745  1
  Cl  Cl40  1  0.55491853  0.97042931  0.81800278  1
  Cl  Cl41  1  0.82320904  0.01255754  0.52090252  1
  Cl  Cl42  1  0.36623369  0.73668352  0.99869526  1
  Cl  Cl43  1  0.79966580  0.54865115  0.16208423  1
  Cl  Cl44  1  0.13361008  0.49298145  0.17687615  1
  Cl  Cl45  1  0.23487343  0.92849715  0.55114212  1
  Cl  Cl46  1  0.19312863  0.59335644  0.61495465  1
  Cl  Cl47  1  0.84215732  0.48548003  0.68206925  1
