# generated using pymatgen
data_AlH12C2(NCl2)3
_symmetry_space_group_name_H-M   'P 1'
_cell_length_a   8.90813306
_cell_length_b   9.89269811
_cell_length_c   7.43369384
_cell_angle_alpha   103.93936065
_cell_angle_beta   86.11948758
_cell_angle_gamma   87.34672610
_symmetry_Int_Tables_number   1
_chemical_formula_structural   AlH12C2(NCl2)3
_chemical_formula_sum   'Al2 H24 C4 N6 Cl12'
_cell_volume   633.02153464
_cell_formula_units_Z   2
loop_
 _symmetry_equiv_pos_site_id
 _symmetry_equiv_pos_as_xyz
  1  'x, y, z'
loop_
 _atom_site_type_symbol
 _atom_site_label
 _atom_site_symmetry_multiplicity
 _atom_site_fract_x
 _atom_site_fract_y
 _atom_site_fract_z
 _atom_site_occupancy
  C  C0  1  0.59673964  0.35064613  0.52755379  1
  C  C1  1  0.96497713  0.18843249  0.08589456  1
  C  C2  1  0.51448175  0.73830452  0.43637713  1
  C  C3  1  0.95968763  0.76916462  0.95674892  1
  N  N4  1  0.59722308  0.32470660  0.71664785  1
  N  N5  1  0.01633569  0.20965121  0.90308041  1
  N  N6  1  0.44764613  0.65974949  0.26850711  1
  N  N7  1  0.86926971  0.77776336  0.13536797  1
  H  H8  1  0.70892622  0.32374516  0.45526431  1
  H  H9  1  0.51371136  0.28627470  0.45188438  1
  H  H10  1  0.56551098  0.46109380  0.54282352  1
  H  H11  1  0.63836820  0.22385671  0.70899876  1
  H  H12  1  0.66096688  0.39255223  0.80997254  1
  H  H13  1  0.48862921  0.33602613  0.77880863  1
  H  H14  1  0.04476030  0.11433340  0.12426617  1
  H  H15  1  0.85412550  0.14451841  0.07680307  1
  H  H16  1  0.95347189  0.28545269  0.19667762  1
  H  H17  1  0.98127692  0.07161803  0.75515471  1
  H  H18  1  0.12903485  0.22583038  0.89514962  1
  H  H19  1  0.96095439  0.29700000  0.88138941  1
  H  H20  1  0.42543375  0.78015350  0.54713455  1
  H  H21  1  0.59327802  0.66776798  0.48219635  1
  H  H22  1  0.57479486  0.82513570  0.40539178  1
  H  H23  1  0.39046836  0.72684746  0.20489557  1
  H  H24  1  0.36835579  0.59024681  0.30213871  1
  H  H25  1  0.53363666  0.60002101  0.17455189  1
  H  H26  1  0.88978602  0.72906374  0.84323514  1
  H  H27  1  0.99276181  0.87315241  0.95235495  1
  H  H28  1  0.05955023  0.69864344  0.94740698  1
  H  H29  1  0.78324248  0.85573125  0.15696329  1
  H  H30  1  0.82016104  0.68120950  0.12998339  1
  H  H31  1  0.93432032  0.80024111  0.24733241  1
  N  N32  1  0.92981816  0.97280570  0.68619678  1
  N  N33  1  0.23653690  0.46756799  0.31134134  1
  Al  Al34  1  0.46798998  0.94114809  0.99392384  1
  Al  Al35  1  0.16237977  0.41496455  0.53528300  1
  Cl  Cl36  1  0.34109030  0.32973250  0.15004818  1
  Cl  Cl37  1  0.26347029  0.90383330  0.13934588  1
  Cl  Cl38  1  0.61251988  0.04757549  0.19678461  1
  Cl  Cl39  1  0.21302243  0.19887774  0.50725583  1
  Cl  Cl40  1  0.42017946  0.05887501  0.79623162  1
  Cl  Cl41  1  0.81488847  0.02927832  0.53074297  1
  Cl  Cl42  1  0.58647711  0.74440179  0.86771313  1
  Cl  Cl43  1  0.73626349  0.48502678  0.07442605  1
  Cl  Cl44  1  0.08845769  0.52746724  0.20092383  1
  Cl  Cl45  1  0.07971256  0.86116078  0.55874156  1
  Cl  Cl46  1  0.28761019  0.53656530  0.74831199  1
  Cl  Cl47  1  0.92772026  0.47186370  0.60207049  1
