# generated using pymatgen
data_MgH12PbC2(NCl3)2
_symmetry_space_group_name_H-M   'P 1'
_cell_length_a   7.67052887
_cell_length_b   10.76041794
_cell_length_c   7.38423210
_cell_angle_alpha   88.06084206
_cell_angle_beta   89.99906319
_cell_angle_gamma   90.01614253
_symmetry_Int_Tables_number   1
_chemical_formula_structural   MgH12PbC2(NCl3)2
_chemical_formula_sum   'Mg2 H24 Pb2 C4 N4 Cl12'
_cell_volume   609.13140109
_cell_formula_units_Z   2
loop_
 _symmetry_equiv_pos_site_id
 _symmetry_equiv_pos_as_xyz
  1  'x, y, z'
loop_
 _atom_site_type_symbol
 _atom_site_label
 _atom_site_symmetry_multiplicity
 _atom_site_fract_x
 _atom_site_fract_y
 _atom_site_fract_z
 _atom_site_occupancy
  C  C0  1  0.40106586  0.24973513  0.41495097  1
  C  C1  1  0.90177654  0.25028734  0.08558460  1
  C  C2  1  0.59893105  0.75026924  0.58506092  1
  C  C3  1  0.09822842  0.74971563  0.91442683  1
  N  N4  1  0.56063564  0.24717672  0.52680409  1
  N  N5  1  0.06089350  0.25274962  0.97304020  1
  N  N6  1  0.43936099  0.75282901  0.47320824  1
  N  N7  1  0.93911196  0.74725003  0.02697195  1
  H  H8  1  0.43856189  0.24993525  0.27233204  1
  H  H9  1  0.32626412  0.16590897  0.44750284  1
  H  H10  1  0.32612136  0.33255928  0.44421262  1
  H  H11  1  0.63298915  0.16927662  0.49695028  1
  H  H12  1  0.63621729  0.32538437  0.49739062  1
  H  H13  1  0.53217329  0.24330038  0.66518079  1
  H  H14  1  0.93987864  0.25005232  0.22802981  1
  H  H15  1  0.82653070  0.16750617  0.05666071  1
  H  H16  1  0.82701178  0.33416973  0.05342065  1
  H  H17  1  0.13647063  0.17453413  0.00224049  1
  H  H18  1  0.13346762  0.33064037  0.00248162  1
  H  H19  1  0.03190672  0.25656860  0.83478160  1
  H  H20  1  0.56143563  0.75007090  0.72767992  1
  H  H21  1  0.67387329  0.66744380  0.55580032  1
  H  H22  1  0.67373493  0.83409412  0.55250702  1
  H  H23  1  0.36700922  0.83073001  0.50306162  1
  H  H24  1  0.36377779  0.67462222  0.50262220  1
  H  H25  1  0.46782319  0.75670463  0.33483152  1
  H  H26  1  0.06012557  0.74995199  0.77198178  1
  H  H27  1  0.17347254  0.83249725  0.94335237  1
  H  H28  1  0.17299521  0.66583372  0.94658785  1
  H  H29  1  0.86353208  0.82546422  0.99777244  1
  H  H30  1  0.86654061  0.66935801  0.99752982  1
  H  H31  1  0.96809898  0.74343122  0.16523046  1
  Mg  Mg32  1  0.50000124  0.00000161  0.00000653  1
  Mg  Mg33  1  1.00000035  0.50000174  0.50000695  1
  Pb  Pb34  1  0.99999939  0.00000186  0.50000651  1
  Pb  Pb35  1  0.50000047  0.50000199  0.00000715  1
  Cl  Cl36  1  0.48060406  0.23392719  0.94624755  1
  Cl  Cl37  1  0.21602186  0.00471963  0.17672652  1
  Cl  Cl38  1  0.67560427  0.01139998  0.29406310  1
  Cl  Cl39  1  0.98014062  0.26606244  0.55397290  1
  Cl  Cl40  1  0.32439569  0.98860538  0.70595134  1
  Cl  Cl41  1  0.78398078  0.99528126  0.82328764  1
  Cl  Cl42  1  0.51940057  0.76607623  0.05376631  1
  Cl  Cl43  1  0.71610589  0.49523327  0.32317391  1
  Cl  Cl44  1  0.17568544  0.48863935  0.20596990  1
  Cl  Cl45  1  0.01985712  0.73394089  0.44604085  1
  Cl  Cl46  1  0.28389538  0.50476998  0.67683798  1
  Cl  Cl47  1  0.82431441  0.51136449  0.79404229  1
