# generated using pymatgen
data_MgTlH12C2(NCl3)2
_symmetry_space_group_name_H-M   'P 1'
_cell_length_a   7.76719293
_cell_length_b   10.93223766
_cell_length_c   7.39406024
_cell_angle_alpha   88.75412798
_cell_angle_beta   90.66457001
_cell_angle_gamma   91.37464656
_symmetry_Int_Tables_number   1
_chemical_formula_structural   MgTlH12C2(NCl3)2
_chemical_formula_sum   'Mg2 Tl2 H24 C4 N4 Cl12'
_cell_volume   627.48273451
_cell_formula_units_Z   2
loop_
 _symmetry_equiv_pos_site_id
 _symmetry_equiv_pos_as_xyz
  1  'x, y, z'
loop_
 _atom_site_type_symbol
 _atom_site_label
 _atom_site_symmetry_multiplicity
 _atom_site_fract_x
 _atom_site_fract_y
 _atom_site_fract_z
 _atom_site_occupancy
  C  C0  1  0.40474130  0.24783537  0.42151620  1
  C  C1  1  0.91188197  0.24707784  0.08486071  1
  C  C2  1  0.59525700  0.75216818  0.57849557  1
  C  C3  1  0.08812158  0.75292568  0.91515116  1
  N  N4  1  0.56822981  0.23969610  0.52523538  1
  N  N5  1  0.06881680  0.24714135  0.97321874  1
  N  N6  1  0.43176850  0.76030931  0.47477659  1
  N  N7  1  0.93118677  0.75285926  0.02679323  1
  H  H8  1  0.43471239  0.24961391  0.27754830  1
  H  H9  1  0.32613037  0.16644052  0.45339901  1
  H  H10  1  0.33960389  0.33074649  0.45844833  1
  H  H11  1  0.62800460  0.15930048  0.49261107  1
  H  H12  1  0.64989540  0.31290087  0.49203423  1
  H  H13  1  0.54736157  0.24002186  0.66396958  1
  H  H14  1  0.95069233  0.24790579  0.22738367  1
  H  H15  1  0.83450718  0.16499903  0.05649244  1
  H  H16  1  0.84036340  0.32935826  0.05155144  1
  H  H17  1  0.13796922  0.16789715  0.00075644  1
  H  H18  1  0.14666439  0.32192298  0.00533689  1
  H  H19  1  0.03986432  0.25355421  0.83538856  1
  H  H20  1  0.56528613  0.75039077  0.72246350  1
  H  H21  1  0.66039184  0.66925595  0.54156411  1
  H  H22  1  0.67387001  0.83356178  0.54661172  1
  H  H23  1  0.37199572  0.84070585  0.50740047  1
  H  H24  1  0.35010105  0.68710558  0.50797782  1
  H  H25  1  0.45263670  0.75998299  0.33604240  1
  H  H26  1  0.04931071  0.75209863  0.77262812  1
  H  H27  1  0.16549448  0.83500504  0.94352064  1
  H  H28  1  0.15964202  0.67064587  0.94845822  1
  H  H29  1  0.86203251  0.83210263  0.99925702  1
  H  H30  1  0.85334113  0.67807683  0.99467402  1
  H  H31  1  0.96013955  0.74644573  0.16462368  1
  Mg  Mg32  1  0.50000119  0.00000135  0.00000689  1
  Mg  Mg33  1  -0.00000030  0.50000170  0.50001047  1
  Tl  Tl34  1  0.99999987  0.00000147  0.50000677  1
  Tl  Tl35  1  0.50000006  0.50000176  0.00000690  1
  Cl  Cl36  1  0.48774902  0.26235173  0.94586925  1
  Cl  Cl37  1  0.22677797  0.00841670  0.15265895  1
  Cl  Cl38  1  0.64879732  0.00577041  0.28708184  1
  Cl  Cl39  1  0.98212334  0.28975222  0.55652161  1
  Cl  Cl40  1  0.35120424  0.99423509  0.71293240  1
  Cl  Cl41  1  0.77322460  0.99158447  0.84735614  1
  Cl  Cl42  1  0.51225410  0.73765204  0.05414376  1
  Cl  Cl43  1  0.70473092  0.48585576  0.30520430  1
  Cl  Cl44  1  0.20695140  0.48445358  0.19262557  1
  Cl  Cl45  1  0.01787583  0.71025036  0.44349138  1
  Cl  Cl46  1  0.29527019  0.51414722  0.69480669  1
  Cl  Cl47  1  0.79304934  0.51555017  0.80738443  1
