# generated using pymatgen
data_MgHgH12C2(NCl3)2
_symmetry_space_group_name_H-M   'P 1'
_cell_length_a   7.62244959
_cell_length_b   10.74698817
_cell_length_c   7.48644003
_cell_angle_alpha   88.13372268
_cell_angle_beta   89.98257568
_cell_angle_gamma   90.00807407
_symmetry_Int_Tables_number   1
_chemical_formula_structural   MgHgH12C2(NCl3)2
_chemical_formula_sum   'Mg2 Hg2 H24 C4 N4 Cl12'
_cell_volume   612.95166180
_cell_formula_units_Z   2
loop_
 _symmetry_equiv_pos_site_id
 _symmetry_equiv_pos_as_xyz
  1  'x, y, z'
loop_
 _atom_site_type_symbol
 _atom_site_label
 _atom_site_symmetry_multiplicity
 _atom_site_fract_x
 _atom_site_fract_y
 _atom_site_fract_z
 _atom_site_occupancy
  C  C0  1  0.42130718  0.25106340  0.41754154  1
  C  C1  1  0.92168172  0.24895944  0.08235033  1
  C  C2  1  0.57869136  0.74893921  0.58247082  1
  C  C3  1  0.07832200  0.75104539  0.91766060  1
  N  N4  1  0.57798533  0.24878903  0.53387197  1
  N  N5  1  0.07817015  0.25107059  0.96565496  1
  N  N6  1  0.42201281  0.75121572  0.46614100  1
  N  N7  1  0.92183356  0.74893104  0.03435617  1
  H  H8  1  0.46404802  0.25479532  0.27807572  1
  H  H9  1  0.34492546  0.16667066  0.44388512  1
  H  H10  1  0.34400278  0.33315379  0.44715326  1
  H  H11  1  0.65387200  0.17131104  0.50991047  1
  H  H12  1  0.65499444  0.32669566  0.50518523  1
  H  H13  1  0.54586523  0.24618337  0.66977788  1
  H  H14  1  0.96464839  0.24520101  0.22170715  1
  H  H15  1  0.84417423  0.16688997  0.05293903  1
  H  H16  1  0.84541309  0.33337961  0.05614477  1
  H  H17  1  0.15510855  0.17316352  0.99426407  1
  H  H18  1  0.15420714  0.32854348  0.98935038  1
  H  H19  1  0.04583040  0.25364101  0.82982606  1
  H  H20  1  0.53595119  0.74520896  0.72193679  1
  H  H21  1  0.65599265  0.66684695  0.55285980  1
  H  H22  1  0.65507625  0.83333018  0.55612579  1
  H  H23  1  0.34612923  0.82869562  0.49010206  1
  H  H24  1  0.34500094  0.67331083  0.49482858  1
  H  H25  1  0.45413274  0.75382012  0.33023499  1
  H  H26  1  0.03535480  0.75480322  0.77830400  1
  H  H27  1  0.15582626  0.83311647  0.94707167  1
  H  H28  1  0.15459380  0.66662664  0.94386579  1
  H  H29  1  0.84489268  0.82683704  0.00574756  1
  H  H30  1  0.84579902  0.67145726  0.01065955  1
  H  H31  1  0.95417292  0.74636058  0.17018500  1
  Mg  Mg32  1  0.50000806  0.00000202  0.00001485  1
  Mg  Mg33  1  0.00000157  0.50000093  0.50000758  1
  Hg  Hg34  1  0.99999823  0.00000088  0.50000103  1
  Hg  Hg35  1  0.50000295  0.50000084  0.00001196  1
  Cl  Cl36  1  0.49064948  0.22441501  0.94405967  1
  Cl  Cl37  1  0.23343749  0.00868443  0.17374898  1
  Cl  Cl38  1  0.73138532  0.00994537  0.32838548  1
  Cl  Cl39  1  0.99036893  0.27555040  0.55576055  1
  Cl  Cl40  1  0.26860621  0.99005924  0.67162088  1
  Cl  Cl41  1  0.76656459  0.99131778  0.82626092  1
  Cl  Cl42  1  0.50935427  0.77558745  0.05595490  1
  Cl  Cl43  1  0.73355537  0.49137160  0.32625159  1
  Cl  Cl44  1  0.23128443  0.48997412  0.17149140  1
  Cl  Cl45  1  0.00962924  0.72445185  0.44425204  1
  Cl  Cl46  1  0.26644540  0.50863072  0.67376333  1
  Cl  Cl47  1  0.76871588  0.51002953  0.82852330  1
