# generated using pymatgen
data_MgH12PtC2(NCl3)2
_symmetry_space_group_name_H-M   'P 1'
_cell_length_a   7.26697987
_cell_length_b   12.01574796
_cell_length_c   7.00042097
_cell_angle_alpha   84.55909086
_cell_angle_beta   90.26134952
_cell_angle_gamma   90.08921264
_symmetry_Int_Tables_number   1
_chemical_formula_structural   MgH12PtC2(NCl3)2
_chemical_formula_sum   'Mg2 H24 Pt2 C4 N4 Cl12'
_cell_volume   608.50338937
_cell_formula_units_Z   2
loop_
 _symmetry_equiv_pos_site_id
 _symmetry_equiv_pos_as_xyz
  1  'x, y, z'
loop_
 _atom_site_type_symbol
 _atom_site_label
 _atom_site_symmetry_multiplicity
 _atom_site_fract_x
 _atom_site_fract_y
 _atom_site_fract_z
 _atom_site_occupancy
  C  C0  1  0.40770137  0.25857031  0.41061785  1
  C  C1  1  0.90960382  0.24012896  0.09290482  1
  C  C2  1  0.58721322  0.73978332  0.58649505  1
  C  C3  1  0.08575854  0.76109417  0.91623865  1
  N  N4  1  0.58355237  0.22953616  0.50979425  1
  N  N5  1  0.08259199  0.26843597  0.98877250  1
  N  N6  1  0.41611424  0.77725698  0.48437545  1
  N  N7  1  0.91482528  0.72355527  0.01672995  1
  H  H8  1  0.43509196  0.27981165  0.25829447  1
  H  H9  1  0.31366731  0.18734130  0.43137340  1
  H  H10  1  0.35053942  0.33048852  0.47330791  1
  H  H11  1  0.63990235  0.15707111  0.46234957  1
  H  H12  1  0.68022829  0.29311169  0.48802271  1
  H  H13  1  0.56327239  0.21567243  0.65802471  1
  H  H14  1  0.94163118  0.22181119  0.24515605  1
  H  H15  1  0.84993330  0.16656080  0.03672789  1
  H  H16  1  0.81583221  0.31134973  0.07005388  1
  H  H17  1  0.17954524  0.20508563  1.00846021  1
  H  H18  1  0.14112259  0.34037442  0.03443855  1
  H  H19  1  0.05810436  0.28387951  0.84116386  1
  H  H20  1  0.55651143  0.71967196  0.73846423  1
  H  H21  1  0.63883555  0.66563759  0.52547253  1
  H  H22  1  0.68831522  0.80748816  0.56752027  1
  H  H23  1  0.36592771  0.85064960  0.53288842  1
  H  H24  1  0.31078359  0.71872120  0.50085726  1
  H  H25  1  0.43951128  0.79371272  0.33721879  1
  H  H26  1  0.05450867  0.78219458  0.76434300  1
  H  H27  1  0.13844171  0.83436066  0.97985626  1
  H  H28  1  0.18647435  0.69325540  0.93325195  1
  H  H29  1  0.81111925  0.78305164  0.00094554  1
  H  H30  1  0.86300977  0.65028617  0.96649151  1
  H  H31  1  0.93866130  0.70718274  0.16403498  1
  Mg  Mg32  1  0.52479844  0.99861632  0.92489584  1
  Mg  Mg33  1  0.08406794  0.49830607  0.48818121  1
  Pt  Pt34  1  0.99466322  0.00055301  0.50685415  1
  Pt  Pt35  1  0.49281797  0.50019782  0.00638226  1
  Cl  Cl36  1  0.48649638  0.18607191  0.94962522  1
  Cl  Cl37  1  0.15290994  0.99921084  0.22345736  1
  Cl  Cl38  1  0.71853471  0.00442415  0.34561529  1
  Cl  Cl39  1  0.98197218  0.31805085  0.55466587  1
  Cl  Cl40  1  0.28335192  0.99653763  0.66680637  1
  Cl  Cl41  1  0.84076989  0.00110975  0.80137098  1
  Cl  Cl42  1  0.51250551  0.81538933  0.04900093  1
  Cl  Cl43  1  0.64851057  0.50060402  0.29084334  1
  Cl  Cl44  1  0.20460393  0.49643094  0.15826710  1
  Cl  Cl45  1  0.01051787  0.68444014  0.45702310  1
  Cl  Cl46  1  0.34562128  0.50000235  0.70418597  1
  Cl  Cl47  1  0.76955072  0.50300160  0.84847513  1
