# generated using pymatgen
data_MgH12OsC2(NCl3)2
_symmetry_space_group_name_H-M   'P 1'
_cell_length_a   7.92047606
_cell_length_b   8.97659645
_cell_length_c   7.93882009
_cell_angle_alpha   92.90388456
_cell_angle_beta   90.00327257
_cell_angle_gamma   89.99997884
_symmetry_Int_Tables_number   1
_chemical_formula_structural   MgH12OsC2(NCl3)2
_chemical_formula_sum   'Mg2 H24 Os2 C4 N4 Cl12'
_cell_volume   563.71672673
_cell_formula_units_Z   2
loop_
 _symmetry_equiv_pos_site_id
 _symmetry_equiv_pos_as_xyz
  1  'x, y, z'
loop_
 _atom_site_type_symbol
 _atom_site_label
 _atom_site_symmetry_multiplicity
 _atom_site_fract_x
 _atom_site_fract_y
 _atom_site_fract_z
 _atom_site_occupancy
  C  C0  1  0.48709971  0.25302145  0.42740566  1
  C  C1  1  0.98708088  0.24696697  0.07259359  1
  C  C2  1  0.52316871  0.75041631  0.57281138  1
  C  C3  1  0.02319528  0.74956785  0.92722166  1
  N  N4  1  0.54225508  0.23465977  0.60240100  1
  N  N5  1  0.04232443  0.26539536  0.89764474  1
  N  N6  1  0.45169137  0.76833227  0.40353193  1
  N  N7  1  0.95163680  0.73164894  0.09645787  1
  H  H8  1  0.59785940  0.25544269  0.34632210  1
  H  H9  1  0.40191724  0.16175322  0.38815174  1
  H  H10  1  0.42245970  0.35989150  0.42082361  1
  H  H11  1  0.62572220  0.14661446  0.61242629  1
  H  H12  1  0.60473261  0.32886632  0.65578171  1
  H  H13  1  0.44034556  0.21334559  0.67912324  1
  H  H14  1  0.09779892  0.24451859  0.15374365  1
  H  H15  1  0.92244098  0.14008938  0.07907886  1
  H  H16  1  0.90187726  0.33821928  0.11183827  1
  H  H17  1  0.10482600  0.17120563  0.84425695  1
  H  H18  1  0.12579502  0.35344824  0.88771539  1
  H  H19  1  0.94045557  0.28673476  0.82086777  1
  H  H20  1  0.42132911  0.75464249  0.66522063  1
  H  H21  1  0.59007351  0.64401452  0.57413931  1
  H  H22  1  0.61236379  0.84097590  0.60081802  1
  H  H23  1  0.37212977  0.86059062  0.39549761  1
  H  H24  1  0.38149125  0.67695011  0.35917028  1
  H  H25  1  0.54664907  0.77799286  0.31567996  1
  H  H26  1  0.92139909  0.74534317  0.83475224  1
  H  H27  1  0.09010625  0.85596859  0.92593467  1
  H  H28  1  0.11239871  0.65900738  0.89926629  1
  H  H29  1  0.88140849  0.82302476  0.14077974  1
  H  H30  1  0.87208391  0.63938258  0.10444999  1
  H  H31  1  0.04655079  0.72200117  0.18437181  1
  Mg  Mg32  1  0.61690652  0.00680624  0.01356229  1
  Mg  Mg33  1  0.11690698  0.49319377  0.48640555  1
  Os  Os34  1  0.99127685  0.99950135  0.49386149  1
  Os  Os35  1  0.49127132  0.50050468  0.00613989  1
  Cl  Cl36  1  0.45841653  0.22977412  0.00997987  1
  Cl  Cl37  1  0.18007264  0.98210095  0.26623991  1
  Cl  Cl38  1  0.74092787  0.98464268  0.29115040  1
  Cl  Cl39  1  0.95841002  0.27023078  0.49004242  1
  Cl  Cl40  1  0.22469257  0.01406635  0.68069890  1
  Cl  Cl41  1  0.79069687  0.01599846  0.77170958  1
  Cl  Cl42  1  0.47569969  0.77361476  0.99578637  1
  Cl  Cl43  1  0.68006607  0.51788144  0.23378519  1
  Cl  Cl44  1  0.24090765  0.51535282  0.20882790  1
  Cl  Cl45  1  0.97571484  0.72639171  0.50421667  1
  Cl  Cl46  1  0.29069459  0.48402817  0.72827224  1
  Cl  Cl47  1  0.72469624  0.48595725  0.81933996  1
