# generated using pymatgen
data_HfMgH12C2(NCl3)2
_symmetry_space_group_name_H-M   'P 1'
_cell_length_a   7.83347411
_cell_length_b   11.37811991
_cell_length_c   7.72524664
_cell_angle_alpha   98.25360177
_cell_angle_beta   89.98967693
_cell_angle_gamma   89.96130029
_symmetry_Int_Tables_number   1
_chemical_formula_structural   HfMgH12C2(NCl3)2
_chemical_formula_sum   'Hf2 Mg2 H24 C4 N4 Cl12'
_cell_volume   681.42087641
_cell_formula_units_Z   2
loop_
 _symmetry_equiv_pos_site_id
 _symmetry_equiv_pos_as_xyz
  1  'x, y, z'
loop_
 _atom_site_type_symbol
 _atom_site_label
 _atom_site_symmetry_multiplicity
 _atom_site_fract_x
 _atom_site_fract_y
 _atom_site_fract_z
 _atom_site_occupancy
  C  C0  1  0.40039599  0.25212620  0.40795490  1
  C  C1  1  0.90118063  0.24809352  0.09256323  1
  C  C2  1  0.59960216  0.74787902  0.59205564  1
  C  C3  1  0.09882218  0.75190922  0.90744938  1
  N  N4  1  0.55747594  0.25696162  0.51656035  1
  N  N5  1  0.05785636  0.24305540  0.98326382  1
  N  N6  1  0.44252243  0.74304329  0.48344981  1
  N  N7  1  0.94214907  0.75694447  0.01675255  1
  H  H8  1  0.43748791  0.24392693  0.27005563  1
  H  H9  1  0.32646837  0.17468369  0.43140443  1
  H  H10  1  0.32661326  0.33370489  0.44525581  1
  H  H11  1  0.62854134  0.17936481  0.48542967  1
  H  H12  1  0.63293927  0.32848161  0.49702159  1
  H  H13  1  0.52837826  0.26566570  0.64979211  1
  H  H14  1  0.93878559  0.25629851  0.23030568  1
  H  H15  1  0.82730085  0.16658854  0.05565999  1
  H  H16  1  0.82714122  0.32561167  0.06940811  1
  H  H17  1  0.13345187  0.17146619  0.00248501  1
  H  H18  1  0.12898153  0.32058328  0.01406836  1
  H  H19  1  0.02827693  0.23435929  0.85015204  1
  H  H20  1  0.56250991  0.75608009  0.72995509  1
  H  H21  1  0.67338374  0.66629955  0.55475682  1
  H  H22  1  0.67353081  0.82532047  0.56860437  1
  H  H23  1  0.37145728  0.82064043  0.51458017  1
  H  H24  1  0.36705882  0.67152376  0.50298865  1
  H  H25  1  0.47162056  0.73433911  0.35021803  1
  H  H26  1  0.06121376  0.74370605  0.76970816  1
  H  H27  1  0.17270115  0.83341450  0.94435328  1
  H  H28  1  0.17286377  0.67439112  0.93059998  1
  H  H29  1  0.86655124  0.82853318  0.99753489  1
  H  H30  1  0.87102524  0.67941607  0.98594743  1
  H  H31  1  0.97173121  0.76563954  0.14986363  1
  Mg  Mg32  1  0.50000101  0.00000303  0.00000748  1
  Mg  Mg33  1  0.99999945  0.50000006  0.50000312  1
  Hf  Hf34  1  -0.00000020  0.00000153  0.50000809  1
  Hf  Hf35  1  0.50000074  0.50000213  0.00000452  1
  Cl  Cl36  1  0.47640884  0.28236088  0.92526551  1
  Cl  Cl37  1  0.11980522  0.02015772  0.21336433  1
  Cl  Cl38  1  0.71151896  0.99538220  0.37341546  1
  Cl  Cl39  1  0.97582362  0.21763361  0.57474634  1
  Cl  Cl40  1  0.28848125  0.00462224  0.62659942  1
  Cl  Cl41  1  0.88019460  0.97984295  0.78665097  1
  Cl  Cl42  1  0.52359367  0.71764335  0.07474415  1
  Cl  Cl43  1  0.61953739  0.47974659  0.28669944  1
  Cl  Cl44  1  0.21139014  0.50455698  0.12635473  1
  Cl  Cl45  1  0.02417596  0.78236894  0.42527077  1
  Cl  Cl46  1  0.38046343  0.52025786  0.71330991  1
  Cl  Cl47  1  0.78861101  0.49544647  0.87365372  1
