# generated using pymatgen
data_BaMgH12C2(NCl3)2
_symmetry_space_group_name_H-M   'P 1'
_cell_length_a   7.85466655
_cell_length_b   11.00823508
_cell_length_c   7.42964196
_cell_angle_alpha   87.34847720
_cell_angle_beta   89.99498934
_cell_angle_gamma   90.01045742
_symmetry_Int_Tables_number   1
_chemical_formula_structural   BaMgH12C2(NCl3)2
_chemical_formula_sum   'Ba2 Mg2 H24 C4 N4 Cl12'
_cell_volume   641.72374306
_cell_formula_units_Z   2
loop_
 _symmetry_equiv_pos_site_id
 _symmetry_equiv_pos_as_xyz
  1  'x, y, z'
loop_
 _atom_site_type_symbol
 _atom_site_label
 _atom_site_symmetry_multiplicity
 _atom_site_fract_x
 _atom_site_fract_y
 _atom_site_fract_z
 _atom_site_occupancy
  C  C0  1  0.40010038  0.25076413  0.41487789  1
  C  C1  1  0.90075369  0.24925066  0.08580592  1
  C  C2  1  0.59989726  0.74923865  0.58513418  1
  C  C3  1  0.09925073  0.75075178  0.91420581  1
  N  N4  1  0.55820060  0.24628758  0.52306393  1
  N  N5  1  0.05838109  0.25363130  0.97684168  1
  N  N6  1  0.44179636  0.75372076  0.47694939  1
  N  N7  1  0.94162334  0.74636858  0.02316993  1
  H  H8  1  0.43408997  0.25045240  0.27207902  1
  H  H9  1  0.32759449  0.16841277  0.44900816  1
  H  H10  1  0.32733169  0.33165261  0.44508794  1
  H  H11  1  0.62636826  0.16979656  0.48969723  1
  H  H12  1  0.63278699  0.32293038  0.49367969  1
  H  H13  1  0.53242936  0.24000825  0.66135072  1
  H  H14  1  0.93537450  0.24948831  0.22842734  1
  H  H15  1  0.82762011  0.16844892  0.05589865  1
  H  H16  1  0.82830208  0.33170788  0.05218070  1
  H  H17  1  0.13296857  0.17695910  0.00599685  1
  H  H18  1  0.12679737  0.33009781  0.00978837  1
  H  H19  1  0.03208771  0.25984897  0.83867724  1
  H  H20  1  0.56590749  0.74955400  0.72793390  1
  H  H21  1  0.67266322  0.66835081  0.55492671  1
  H  H22  1  0.67240575  0.83159061  0.55100229  1
  H  H23  1  0.37363189  0.83020896  0.51031396  1
  H  H24  1  0.36720858  0.67707548  0.50633332  1
  H  H25  1  0.46756873  0.75999653  0.33866149  1
  H  H26  1  0.06462976  0.75051607  0.77158417  1
  H  H27  1  0.17238355  0.83155332  0.94411556  1
  H  H28  1  0.17170301  0.66829443  0.94782790  1
  H  H29  1  0.86703427  0.82304001  0.99401589  1
  H  H30  1  0.87320900  0.66990140  0.99022206  1
  H  H31  1  0.96791666  0.74015053  0.16133448  1
  Mg  Mg32  1  0.50000157  0.00000196  0.00000681  1
  Mg  Mg33  1  0.99999995  0.50000160  0.50000585  1
  Ba  Ba34  1  -0.00000012  0.00000174  0.50000630  1
  Ba  Ba35  1  0.50000014  0.50000233  0.00000591  1
  Cl  Cl36  1  0.47959445  0.22779903  0.94034672  1
  Cl  Cl37  1  0.21902845  0.00788603  0.16161953  1
  Cl  Cl38  1  0.66081473  0.01704608  0.29581382  1
  Cl  Cl39  1  0.97922182  0.27219470  0.55990267  1
  Cl  Cl40  1  0.33918564  0.98295939  0.70420069  1
  Cl  Cl41  1  0.78097498  0.99211539  0.83839575  1
  Cl  Cl42  1  0.52040946  0.77220499  0.05966751  1
  Cl  Cl43  1  0.71911447  0.49203963  0.33825909  1
  Cl  Cl44  1  0.16089648  0.48295754  0.20423820  1
  Cl  Cl45  1  0.02077632  0.72780855  0.44011033  1
  Cl  Cl46  1  0.28088590  0.50796415  0.66175212  1
  Cl  Cl47  1  0.83910306  0.51704564  0.79577293  1
