# generated using pymatgen
data_BaH12C3(I3N)2
_symmetry_space_group_name_H-M   'P 1'
_cell_length_a   8.55724861
_cell_length_b   12.35132400
_cell_length_c   8.42665971
_cell_angle_alpha   87.93375083
_cell_angle_beta   90.00829936
_cell_angle_gamma   90.05928040
_symmetry_Int_Tables_number   1
_chemical_formula_structural   BaH12C3(I3N)2
_chemical_formula_sum   'Ba2 H24 C6 I12 N4'
_cell_volume   890.06232424
_cell_formula_units_Z   2
loop_
 _symmetry_equiv_pos_site_id
 _symmetry_equiv_pos_as_xyz
  1  'x, y, z'
loop_
 _atom_site_type_symbol
 _atom_site_label
 _atom_site_symmetry_multiplicity
 _atom_site_fract_x
 _atom_site_fract_y
 _atom_site_fract_z
 _atom_site_occupancy
  C  C0  1  0.41707381  0.25032093  0.42013194  1
  C  C1  1  0.91368634  0.25199932  0.08296557  1
  C  C2  1  0.58691389  0.75260899  0.58339834  1
  C  C3  1  0.08270517  0.75081881  0.91893263  1
  N  N4  1  0.56135529  0.24639387  0.51802607  1
  N  N5  1  0.05572841  0.25075878  0.98206144  1
  N  N6  1  0.44423677  0.75157628  0.48334953  1
  N  N7  1  0.93835772  0.74690273  0.01676139  1
  H  H8  1  0.45073655  0.25455715  0.29456013  1
  H  H9  1  0.35202266  0.17494846  0.44262202  1
  H  H10  1  0.34629543  0.31994316  0.45234738  1
  H  H11  1  0.62700322  0.17818275  0.48781287  1
  H  H12  1  0.63145436  0.31436523  0.49922732  1
  H  H13  1  0.53594632  0.24056630  0.63901297  1
  H  H14  1  0.94935260  0.24968526  0.20795338  1
  H  H15  1  0.84267651  0.18081950  0.05851395  1
  H  H16  1  0.84975565  0.32688866  0.05401764  1
  H  H17  1  0.12233737  0.18180713  0.01166978  1
  H  H18  1  0.12298207  0.31866653  0.00097339  1
  H  H19  1  0.02958532  0.25122432  0.85990588  1
  H  H20  1  0.55204475  0.75026905  0.70863643  1
  H  H21  1  0.65738364  0.68136226  0.55839161  1
  H  H22  1  0.65106121  0.82743132  0.55414167  1
  H  H23  1  0.37728443  0.81944335  0.50319322  1
  H  H24  1  0.37764877  0.68255795  0.51288252  1
  H  H25  1  0.46973953  0.75241854  0.36109339  1
  H  H26  1  0.04906600  0.75487564  0.79333023  1
  H  H27  1  0.15357397  0.82054159  0.95099979  1
  H  H28  1  0.14764544  0.67550996  0.94163458  1
  H  H29  1  0.86821593  0.81471335  0.99739912  1
  H  H30  1  0.87278549  0.67852209  0.98694485  1
  H  H31  1  0.96369815  0.74155006  0.13775576  1
  C  C32  1  0.50536698  0.02485627  0.92859856  1
  C  C33  1  0.99459972  0.52460671  0.42785464  1
  Ba  Ba34  1  0.98850053  0.00125189  0.50435348  1
  Ba  Ba35  1  0.51133753  0.50127193  0.00393270  1
  I  I36  1  0.48429313  0.21459052  0.93354721  1
  I  I37  1  0.18268402  0.00588656  0.16885303  1
  I  I38  1  0.65719134  0.01687132  0.31908720  1
  I  I39  1  0.99005647  0.25918388  0.57057713  1
  I  I40  1  0.35149258  0.98524463  0.71264410  1
  I  I41  1  0.76246795  0.99653562  0.85430259  1
  I  I42  1  0.51057071  0.75900629  0.07167612  1
  I  I43  1  0.73747916  0.49604066  0.35363068  1
  I  I44  1  0.14823441  0.48500078  0.21181458  1
  I  I45  1  0.01614589  0.71443428  0.43271042  1
  I  I46  1  0.31715448  0.50605433  0.66844499  1
  I  I47  1  0.84209606  0.51701329  0.81762236  1
