# generated using pymatgen
data_MgSnH12C2(NCl3)2
_symmetry_space_group_name_H-M   'P 1'
_cell_length_a   7.76445627
_cell_length_b   10.66957908
_cell_length_c   7.31978550
_cell_angle_alpha   88.44572347
_cell_angle_beta   89.98840714
_cell_angle_gamma   90.00975751
_symmetry_Int_Tables_number   1
_chemical_formula_structural   MgSnH12C2(NCl3)2
_chemical_formula_sum   'Mg2 Sn2 H24 C4 N4 Cl12'
_cell_volume   606.17337714
_cell_formula_units_Z   2
loop_
 _symmetry_equiv_pos_site_id
 _symmetry_equiv_pos_as_xyz
  1  'x, y, z'
loop_
 _atom_site_type_symbol
 _atom_site_label
 _atom_site_symmetry_multiplicity
 _atom_site_fract_x
 _atom_site_fract_y
 _atom_site_fract_z
 _atom_site_occupancy
  C  C0  1  0.41545784  0.25181565  0.42849548  1
  C  C1  1  0.91576979  0.24824197  0.07163403  1
  C  C2  1  0.58453790  0.74818728  0.57151696  1
  C  C3  1  0.08423592  0.75176213  0.92837827  1
  N  N4  1  0.57951569  0.24558030  0.53044927  1
  N  N5  1  0.07962703  0.25432522  0.96922741  1
  N  N6  1  0.42048086  0.75442512  0.46956173  1
  N  N7  1  0.92037863  0.74567507  0.03078441  1
  H  H8  1  0.44434962  0.25265282  0.28250979  1
  H  H9  1  0.34037245  0.16850412  0.46455844  1
  H  H10  1  0.34658260  0.33651555  0.46490863  1
  H  H11  1  0.64640033  0.16610502  0.49389873  1
  H  H12  1  0.65529720  0.32307944  0.49775998  1
  H  H13  1  0.55888163  0.24150071  0.67133677  1
  H  H14  1  0.94500029  0.24737431  0.21753668  1
  H  H15  1  0.84663891  0.16359504  0.03543221  1
  H  H16  1  0.84078694  0.33161351  0.03581268  1
  H  H17  1  0.15534105  0.17681853  0.00176663  1
  H  H18  1  0.14671883  0.33379398  0.00549016  1
  H  H19  1  0.05870896  0.25838070  0.82837507  1
  H  H20  1  0.55564481  0.74735014  0.71750240  1
  H  H21  1  0.65341106  0.66348666  0.53510395  1
  H  H22  1  0.65962574  0.83149782  0.53545515  1
  H  H23  1  0.35359786  0.83390139  0.50611153  1
  H  H24  1  0.34469728  0.67692700  0.50224958  1
  H  H25  1  0.44111662  0.75850467  0.32867422  1
  H  H26  1  0.05500614  0.75262919  0.78247554  1
  H  H27  1  0.15336279  0.83641086  0.96458042  1
  H  H28  1  0.15922240  0.66839251  0.96420011  1
  H  H29  1  0.84466166  0.82318035  0.99824580  1
  H  H30  1  0.85328957  0.66620522  0.99452092  1
  H  H31  1  0.94129631  0.74161967  0.17163686  1
  Mg  Mg32  1  0.50000041  0.00000084  0.00000489  1
  Mg  Mg33  1  0.00000135  0.50000184  0.50000657  1
  Sn  Sn34  1  0.99999787  0.00000233  0.50000611  1
  Sn  Sn35  1  0.50000182  0.50000081  0.00000735  1
  Cl  Cl36  1  0.49192982  0.23557821  0.95169833  1
  Cl  Cl37  1  0.22667312  0.00863469  0.19208563  1
  Cl  Cl38  1  0.69060044  0.01046063  0.28567404  1
  Cl  Cl39  1  0.99169835  0.26442188  0.54825762  1
  Cl  Cl40  1  0.30940379  0.98954458  0.71434274  1
  Cl  Cl41  1  0.77333101  0.99136810  0.80792906  1
  Cl  Cl42  1  0.50807706  0.76442565  0.04831661  1
  Cl  Cl43  1  0.72670925  0.49138067  0.30786119  1
  Cl  Cl44  1  0.19056840  0.48950694  0.21431097  1
  Cl  Cl45  1  0.00829819  0.73558122  0.45175542  1
  Cl  Cl46  1  0.27328878  0.50862234  0.69214975  1
  Cl  Cl47  1  0.80942936  0.51049560  0.78570050  1
