# generated using pymatgen
data_MgInH12C2(NCl3)2
_symmetry_space_group_name_H-M   'P 1'
_cell_length_a   7.79347034
_cell_length_b   10.91340352
_cell_length_c   7.33795846
_cell_angle_alpha   89.18879448
_cell_angle_beta   90.94125224
_cell_angle_gamma   90.76852829
_symmetry_Int_Tables_number   1
_chemical_formula_structural   MgInH12C2(NCl3)2
_chemical_formula_sum   'Mg2 In2 H24 C4 N4 Cl12'
_cell_volume   623.91649792
_cell_formula_units_Z   2
loop_
 _symmetry_equiv_pos_site_id
 _symmetry_equiv_pos_as_xyz
  1  'x, y, z'
loop_
 _atom_site_type_symbol
 _atom_site_label
 _atom_site_symmetry_multiplicity
 _atom_site_fract_x
 _atom_site_fract_y
 _atom_site_fract_z
 _atom_site_occupancy
  C  C0  1  0.41805997  0.24674059  0.43384368  1
  C  C1  1  0.92867233  0.24620944  0.07499120  1
  C  C2  1  0.58193703  0.75325979  0.56615658  1
  C  C3  1  0.07132751  0.75379670  0.92501774  1
  N  N4  1  0.58279613  0.23627607  0.53576060  1
  N  N5  1  0.08798299  0.24438996  0.96802232  1
  N  N6  1  0.41720322  0.76373116  0.46423588  1
  N  N7  1  0.91201593  0.75560901  0.03198582  1
  H  H8  1  0.44552205  0.24917049  0.28847336  1
  H  H9  1  0.33972561  0.16599812  0.46585666  1
  H  H10  1  0.35492099  0.33048286  0.47403094  1
  H  H11  1  0.64025358  0.15448583  0.50287050  1
  H  H12  1  0.66560381  0.30736761  0.50097576  1
  H  H13  1  0.56469657  0.23853997  0.67596923  1
  H  H14  1  0.96410846  0.24678118  0.21965982  1
  H  H15  1  0.85185513  0.16462653  0.04353259  1
  H  H16  1  0.85831528  0.32920792  0.03953794  1
  H  H17  1  0.15503384  0.16404382  0.99673951  1
  H  H18  1  0.16630858  0.31778692  0.00408787  1
  H  H19  1  0.06249453  0.25172501  0.82858298  1
  H  H20  1  0.55447159  0.75082750  0.71152629  1
  H  H21  1  0.64507377  0.66951771  0.52596436  1
  H  H22  1  0.66027485  0.83400191  0.53415136  1
  H  H23  1  0.35974913  0.84552221  0.49713032  1
  H  H24  1  0.33439195  0.69264095  0.49901608  1
  H  H25  1  0.43530380  0.76146939  0.32402821  1
  H  H26  1  0.03589271  0.75322931  0.78034838  1
  H  H27  1  0.14813916  0.83538175  0.95647878  1
  H  H28  1  0.14169107  0.67080148  0.96047337  1
  H  H29  1  0.84496346  0.83595509  0.00327469  1
  H  H30  1  0.83369257  0.68221243  0.99591910  1
  H  H31  1  0.93750493  0.74826594  0.17142457  1
  Mg  Mg32  1  0.50000074  0.99999278  0.00000353  1
  Mg  Mg33  1  0.00014522  0.50002420  0.50031580  1
  In  In34  1  0.99999982  0.99999538  0.50000645  1
  In  In35  1  0.50001290  0.49999280  0.00007958  1
  Cl  Cl36  1  0.50019449  0.26966019  0.95534180  1
  Cl  Cl37  1  0.23451363  0.00750009  0.16399007  1
  Cl  Cl38  1  0.65927567  0.00524344  0.28177192  1
  Cl  Cl39  1  0.99040997  0.29154608  0.55263096  1
  Cl  Cl40  1  0.34072426  0.99475799  0.71823513  1
  Cl  Cl41  1  0.76548998  0.99250075  0.83601974  1
  Cl  Cl42  1  0.49979262  0.73035164  0.04461149  1
  Cl  Cl43  1  0.70099944  0.48330665  0.29063541  1
  Cl  Cl44  1  0.22558636  0.48272365  0.19313075  1
  Cl  Cl45  1  0.00955999  0.70844266  0.44735063  1
  Cl  Cl46  1  0.29891614  0.51670128  0.70930021  1
  Cl  Cl47  1  0.77441996  0.51728404  0.80680661  1
