# generated using pymatgen
data_MgCdH12C2(NCl3)2
_symmetry_space_group_name_H-M   'P 1'
_cell_length_a   7.60135462
_cell_length_b   10.35523204
_cell_length_c   7.23393339
_cell_angle_alpha   89.36424805
_cell_angle_beta   89.97113749
_cell_angle_gamma   90.00439251
_symmetry_Int_Tables_number   1
_chemical_formula_structural   MgCdH12C2(NCl3)2
_chemical_formula_sum   'Mg2 Cd2 H24 C4 N4 Cl12'
_cell_volume   569.37519334
_cell_formula_units_Z   2
loop_
 _symmetry_equiv_pos_site_id
 _symmetry_equiv_pos_as_xyz
  1  'x, y, z'
loop_
 _atom_site_type_symbol
 _atom_site_label
 _atom_site_symmetry_multiplicity
 _atom_site_fract_x
 _atom_site_fract_y
 _atom_site_fract_z
 _atom_site_occupancy
  C  C0  1  0.42701221  0.25204218  0.43364266  1
  C  C1  1  0.92729378  0.24801523  0.06628435  1
  C  C2  1  0.57298708  0.74796041  0.56637059  1
  C  C3  1  0.07270916  0.75198904  0.93373004  1
  N  N4  1  0.59162408  0.24741744  0.54075175  1
  N  N5  1  0.09168915  0.25249940  0.95863632  1
  N  N6  1  0.40837592  0.75258687  0.45925902  1
  N  N7  1  0.90831291  0.74750140  0.04137521  1
  H  H8  1  0.46027252  0.25337254  0.28709500  1
  H  H9  1  0.35017967  0.16623988  0.46691596  1
  H  H10  1  0.35548932  0.33913164  0.46986504  1
  H  H11  1  0.66238347  0.16578043  0.50716363  1
  H  H12  1  0.66865745  0.32699848  0.50948266  1
  H  H13  1  0.56801614  0.24557939  0.68273070  1
  H  H14  1  0.96090860  0.24671041  0.21275116  1
  H  H15  1  0.85556840  0.16096469  0.03041033  1
  H  H16  1  0.85052396  0.33385736  0.03325898  1
  H  H17  1  0.16868450  0.17288727  0.98959066  1
  H  H18  1  0.16263397  0.33409652  0.99181897  1
  H  H19  1  0.06772535  0.25431171  0.81670043  1
  H  H20  1  0.53972266  0.74663072  0.71291872  1
  H  H21  1  0.64450824  0.66087021  0.53015115  1
  H  H22  1  0.64982146  0.83376169  0.53310001  1
  H  H23  1  0.33761796  0.83422393  0.49284497  1
  H  H24  1  0.33134191  0.67300631  0.49052480  1
  H  H25  1  0.43198795  0.75442502  0.31727940  1
  H  H26  1  0.03909738  0.75329413  0.78726294  1
  H  H27  1  0.14443142  0.83904063  0.96960703  1
  H  H28  1  0.14948141  0.66614808  0.96675622  1
  H  H29  1  0.83131544  0.82711271  0.01042142  1
  H  H30  1  0.83737031  0.66590348  0.00818933  1
  H  H31  1  0.93227417  0.74568810  0.18331129  1
  Mg  Mg32  1  0.50000099  0.00000225  0.00000746  1
  Mg  Mg33  1  0.99999919  0.50000208  0.50000249  1
  Cd  Cd34  1  0.00000054  0.00000210  0.50000794  1
  Cd  Cd35  1  0.49999966  0.50000237  0.00000218  1
  Cl  Cl36  1  0.50106592  0.24201592  0.96202361  1
  Cl  Cl37  1  0.22479264  0.00702896  0.20756635  1
  Cl  Cl38  1  0.71038082  0.00588327  0.28410246  1
  Cl  Cl39  1  0.00079151  0.25798591  0.53776430  1
  Cl  Cl40  1  0.28962037  0.99411993  0.71591205  1
  Cl  Cl41  1  0.77520972  0.99297471  0.79244873  1
  Cl  Cl42  1  0.49893666  0.75798821  0.03798865  1
  Cl  Cl43  1  0.72504226  0.49301943  0.29255598  1
  Cl  Cl44  1  0.21049932  0.49400319  0.21567973  1
  Cl  Cl45  1  0.99920826  0.74201811  0.46224852  1
  Cl  Cl46  1  0.27495671  0.50698475  0.70745447  1
  Cl  Cl47  1  0.78950121  0.50599982  0.78433095  1
