# generated using pymatgen
data_MgH12PdC2(NCl3)2
_symmetry_space_group_name_H-M   'P 1'
_cell_length_a   7.04682567
_cell_length_b   10.99790701
_cell_length_c   7.77953830
_cell_angle_alpha   90.53063119
_cell_angle_beta   89.99992822
_cell_angle_gamma   89.99932808
_symmetry_Int_Tables_number   1
_chemical_formula_structural   MgH12PdC2(NCl3)2
_chemical_formula_sum   'Mg2 H24 Pd2 C4 N4 Cl12'
_cell_volume   602.89095631
_cell_formula_units_Z   2
loop_
 _symmetry_equiv_pos_site_id
 _symmetry_equiv_pos_as_xyz
  1  'x, y, z'
loop_
 _atom_site_type_symbol
 _atom_site_label
 _atom_site_symmetry_multiplicity
 _atom_site_fract_x
 _atom_site_fract_y
 _atom_site_fract_z
 _atom_site_occupancy
  C  C0  1  0.48368165  0.25725063  0.41041860  1
  C  C1  1  0.98365956  0.24270478  0.08956992  1
  C  C2  1  0.50983782  0.74211927  0.57728314  1
  C  C3  1  0.00990406  0.75793680  0.92276127  1
  N  N4  1  0.55644096  0.25166396  0.58916219  1
  N  N5  1  0.05645955  0.24837001  0.91085275  1
  N  N6  1  0.44539717  0.74851209  0.39655602  1
  N  N7  1  0.94539641  0.75144840  0.10345437  1
  H  H8  1  0.60528625  0.26144037  0.32382198  1
  H  H9  1  0.40078767  0.17506628  0.38418430  1
  H  H10  1  0.39544209  0.33841609  0.39682884  1
  H  H11  1  0.64324611  0.17652419  0.60588888  1
  H  H12  1  0.63742249  0.32704399  0.62139133  1
  H  H13  1  0.45000806  0.24575277  0.67979729  1
  H  H14  1  0.10524238  0.23847764  0.17619203  1
  H  H15  1  0.89541206  0.16153704  0.10307267  1
  H  H16  1  0.90075815  0.32488245  0.11585598  1
  H  H17  1  0.13741635  0.17298986  0.87856191  1
  H  H18  1  0.14329100  0.32350012  0.89421976  1
  H  H19  1  0.95004583  0.25434043  0.82019172  1
  H  H20  1  0.38588407  0.74290249  0.66147004  1
  H  H21  1  0.59112082  0.65850310  0.59521775  1
  H  H22  1  0.60082561  0.82079136  0.60324228  1
  H  H23  1  0.36151045  0.82514117  0.37415518  1
  H  H24  1  0.36767759  0.67240120  0.35908595  1
  H  H25  1  0.55792644  0.75435159  0.31250988  1
  H  H26  1  0.88597655  0.75718809  0.83852985  1
  H  H27  1  0.09118022  0.84156394  0.90493685  1
  H  H28  1  0.10091227  0.67928103  0.89674409  1
  H  H29  1  0.86770743  0.82755359  0.14099027  1
  H  H30  1  0.86148321  0.67482620  0.12575649  1
  H  H31  1  0.05790896  0.74553705  0.18753855  1
  Mg  Mg32  1  0.50815536  0.99763514  0.89596540  1
  Mg  Mg33  1  0.00814836  0.50237859  0.60405690  1
  Pd  Pd34  1  0.99764357  0.99451928  0.50079970  1
  Pd  Pd35  1  0.49763254  0.50548116  0.99920297  1
  Cl  Cl36  1  0.48818303  0.19251289  0.99828287  1
  Cl  Cl37  1  0.19192863  0.97295939  0.26540993  1
  Cl  Cl38  1  0.73800453  0.97746278  0.32500204  1
  Cl  Cl39  1  0.98817049  0.30750214  0.50173284  1
  Cl  Cl40  1  0.26953509  0.02478479  0.67743060  1
  Cl  Cl41  1  0.80874055  0.02515120  0.75018003  1
  Cl  Cl42  1  0.50523836  0.80588391  0.99851356  1
  Cl  Cl43  1  0.69187479  0.52701391  0.23463045  1
  Cl  Cl44  1  0.23796413  0.52249083  0.17496274  1
  Cl  Cl45  1  0.00520043  0.69412467  0.50148780  1
  Cl  Cl46  1  0.30878309  0.47489208  0.74977192  1
  Cl  Cl47  1  0.76957154  0.47526755  0.82262471  1
