# generated using pymatgen
data_MgH12RuC2(NCl3)2
_symmetry_space_group_name_H-M   'P 1'
_cell_length_a   7.96984239
_cell_length_b   8.96138194
_cell_length_c   7.95078382
_cell_angle_alpha   93.05737256
_cell_angle_beta   90.00036003
_cell_angle_gamma   90.00090748
_symmetry_Int_Tables_number   1
_chemical_formula_structural   MgH12RuC2(NCl3)2
_chemical_formula_sum   'Mg2 H24 Ru2 C4 N4 Cl12'
_cell_volume   567.04309014
_cell_formula_units_Z   2
loop_
 _symmetry_equiv_pos_site_id
 _symmetry_equiv_pos_as_xyz
  1  'x, y, z'
loop_
 _atom_site_type_symbol
 _atom_site_label
 _atom_site_symmetry_multiplicity
 _atom_site_fract_x
 _atom_site_fract_y
 _atom_site_fract_z
 _atom_site_occupancy
  C  C0  1  0.47924527  0.25041303  0.42998540  1
  C  C1  1  0.97920051  0.24957760  0.07002224  1
  C  C2  1  0.51043443  0.74570945  0.57184192  1
  C  C3  1  0.01043053  0.75429177  0.92816241  1
  N  N4  1  0.54442560  0.23008936  0.60078783  1
  N  N5  1  0.04442610  0.26991912  0.89923724  1
  N  N6  1  0.46216212  0.76725590  0.39590883  1
  N  N7  1  0.96218328  0.73275090  0.10410181  1
  H  H8  1  0.58354856  0.24759890  0.34117842  1
  H  H9  1  0.39182564  0.15985805  0.39670259  1
  H  H10  1  0.41254783  0.35691474  0.42866299  1
  H  H11  1  0.62509640  0.13866993  0.60896671  1
  H  H12  1  0.61133470  0.32197908  0.64938930  1
  H  H13  1  0.44723299  0.21705033  0.68455481  1
  H  H14  1  0.08347512  0.25240443  0.15885865  1
  H  H15  1  0.91253704  0.14305131  0.07131047  1
  H  H16  1  0.89174380  0.34010134  0.10328250  1
  H  H17  1  0.11136544  0.17804542  0.85064438  1
  H  H18  1  0.12509383  0.36135453  0.89109760  1
  H  H19  1  0.94726687  0.28296203  0.81545079  1
  H  H20  1  0.39755576  0.74239495  0.64880814  1
  H  H21  1  0.57379017  0.63822939  0.57789990  1
  H  H22  1  0.59432093  0.83609519  0.61628636  1
  H  H23  1  0.38071454  0.85634355  0.38455749  1
  H  H24  1  0.40046683  0.67396563  0.33929891  1
  H  H25  1  0.56640216  0.78879992  0.32342420  1
  H  H26  1  0.89754041  0.75761463  0.85121248  1
  H  H27  1  0.07378911  0.86177348  0.92209511  1
  H  H28  1  0.09430871  0.66390893  0.88370249  1
  H  H29  1  0.90049368  0.82603764  0.16072218  1
  H  H30  1  0.88073421  0.64366140  0.11546528  1
  H  H31  1  0.06643267  0.71119886  0.17657003  1
  Mg  Mg32  1  0.38178491  0.99378418  0.98884608  1
  Mg  Mg33  1  0.88178338  0.50622420  0.51116479  1
  Ru  Ru34  1  0.00795657  0.00054160  0.50376726  1
  Ru  Ru35  1  0.50795673  0.49946451  0.99624661  1
  Cl  Cl36  1  0.52500247  0.22488611  0.00712216  1
  Cl  Cl37  1  0.21021188  0.98400697  0.23165212  1
  Cl  Cl38  1  0.77727973  0.98559698  0.31740430  1
  Cl  Cl39  1  0.02500551  0.27512180  0.49289610  1
  Cl  Cl40  1  0.25757248  0.01404008  0.71309276  1
  Cl  Cl41  1  0.81875259  0.01738302  0.72911701  1
  Cl  Cl42  1  0.54038711  0.77193972  0.98999304  1
  Cl  Cl43  1  0.71021566  0.51601140  0.26835828  1
  Cl  Cl44  1  0.27727343  0.51439594  0.18260959  1
  Cl  Cl45  1  0.04038845  0.72806477  0.51001908  1
  Cl  Cl46  1  0.31875338  0.48262765  0.77089705  1
  Cl  Cl47  1  0.75757421  0.48596855  0.78692089  1
