# generated using pymatgen
data_SrMgH12C2(NCl3)2
_symmetry_space_group_name_H-M   'P 1'
_cell_length_a   7.75382551
_cell_length_b   10.74335057
_cell_length_c   7.34099317
_cell_angle_alpha   88.20705523
_cell_angle_beta   89.99546215
_cell_angle_gamma   90.00557314
_symmetry_Int_Tables_number   1
_chemical_formula_structural   SrMgH12C2(NCl3)2
_chemical_formula_sum   'Sr2 Mg2 H24 C4 N4 Cl12'
_cell_volume   611.22050326
_cell_formula_units_Z   2
loop_
 _symmetry_equiv_pos_site_id
 _symmetry_equiv_pos_as_xyz
  1  'x, y, z'
loop_
 _atom_site_type_symbol
 _atom_site_label
 _atom_site_symmetry_multiplicity
 _atom_site_fract_x
 _atom_site_fract_y
 _atom_site_fract_z
 _atom_site_occupancy
  C  C0  1  0.40794788  0.25114910  0.42132268  1
  C  C1  1  0.90842268  0.24888407  0.07905926  1
  C  C2  1  0.59205063  0.74885356  0.57869089  1
  C  C3  1  0.09158000  0.75112057  0.92095107  1
  N  N4  1  0.56932796  0.24640959  0.52811392  1
  N  N5  1  0.06946842  0.25350138  0.97167897  1
  N  N6  1  0.43067041  0.75359605  0.47189796  1
  N  N7  1  0.93053636  0.74649849  0.02833404  1
  H  H8  1  0.44061686  0.25200387  0.27653038  1
  H  H9  1  0.33421541  0.16721643  0.45469335  1
  H  H10  1  0.33551695  0.33412445  0.45527887  1
  H  H11  1  0.63811002  0.16792171  0.49345630  1
  H  H12  1  0.64489215  0.32412892  0.49758188  1
  H  H13  1  0.54504866  0.24159148  0.66816120  1
  H  H14  1  0.94158296  0.24797456  0.22371850  1
  H  H15  1  0.83570023  0.16597382  0.04535742  1
  H  H16  1  0.83475470  0.33289296  0.04603972  1
  H  H17  1  0.14502032  0.17575390  0.00202397  1
  H  H18  1  0.13844587  0.33196074  0.00599116  1
  H  H19  1  0.04477191  0.25827390  0.83170415  1
  H  H20  1  0.55938320  0.74800107  0.72348141  1
  H  H21  1  0.66447989  0.66587810  0.54473418  1
  H  H22  1  0.66578505  0.83278634  0.54531658  1
  H  H23  1  0.36188986  0.83208286  0.50655722  1
  H  H24  1  0.35510451  0.67587534  0.50243300  1
  H  H25  1  0.45494850  0.75841207  0.33185306  1
  H  H26  1  0.05842028  0.75203025  0.77629312  1
  H  H27  1  0.16430255  0.83402920  0.95465537  1
  H  H28  1  0.16524965  0.66710984  0.95396951  1
  H  H29  1  0.85498138  0.82424836  0.99798802  1
  H  H30  1  0.86155901  0.66804112  0.99401941  1
  H  H31  1  0.95523157  0.74172749  0.16830644  1
  Mg  Mg32  1  0.50000107  0.00000172  0.00000665  1
  Mg  Mg33  1  1.00000029  0.50000147  0.50000609  1
  Sr  Sr34  1  0.00000013  0.00000168  0.50000620  1
  Sr  Sr35  1  0.50000066  0.50000187  0.00000664  1
  Cl  Cl36  1  0.48642960  0.23410068  0.94856122  1
  Cl  Cl37  1  0.22276580  0.00766647  0.18211931  1
  Cl  Cl38  1  0.68110370  0.01213084  0.29037453  1
  Cl  Cl39  1  0.98613657  0.26589845  0.55155568  1
  Cl  Cl40  1  0.31889701  0.98787394  0.70963889  1
  Cl  Cl41  1  0.77723574  0.99233599  0.81789388  1
  Cl  Cl42  1  0.51357309  0.76590286  0.05145274  1
  Cl  Cl43  1  0.72279405  0.49230419  0.31783619  1
  Cl  Cl44  1  0.18110666  0.48784610  0.20962001  1
  Cl  Cl45  1  0.01386279  0.73410454  0.44845687  1
  Cl  Cl46  1  0.27720686  0.50769832  0.68217656  1
  Cl  Cl47  1  0.81889390  0.51215753  0.79039213  1
