# generated using pymatgen
data_MgGeH12C2(NCl3)2
_symmetry_space_group_name_H-M   'P 1'
_cell_length_a   8.25617684
_cell_length_b   10.09942219
_cell_length_c   7.50584498
_cell_angle_alpha   89.06627329
_cell_angle_beta   89.76236395
_cell_angle_gamma   90.29884833
_symmetry_Int_Tables_number   1
_chemical_formula_structural   MgGeH12C2(NCl3)2
_chemical_formula_sum   'Mg2 Ge2 H24 C4 N4 Cl12'
_cell_volume   625.75976219
_cell_formula_units_Z   2
loop_
 _symmetry_equiv_pos_site_id
 _symmetry_equiv_pos_as_xyz
  1  'x, y, z'
loop_
 _atom_site_type_symbol
 _atom_site_label
 _atom_site_symmetry_multiplicity
 _atom_site_fract_x
 _atom_site_fract_y
 _atom_site_fract_z
 _atom_site_occupancy
  C  C0  1  0.43017663  0.25856852  0.44854415  1
  C  C1  1  0.94297548  0.24697402  0.05028680  1
  C  C2  1  0.55421555  0.74610509  0.53736099  1
  C  C3  1  0.06829117  0.75525050  0.95809046  1
  N  N4  1  0.59194189  0.24543181  0.53233478  1
  N  N5  1  0.10894336  0.25669964  0.97479044  1
  N  N6  1  0.39324230  0.75511468  0.45101121  1
  N  N7  1  0.90847925  0.74179863  0.04831797  1
  H  H8  1  0.44581410  0.25936373  0.30388106  1
  H  H9  1  0.35491101  0.17443732  0.49040176  1
  H  H10  1  0.37554089  0.35094584  0.49125212  1
  H  H11  1  0.64987391  0.16129367  0.48721364  1
  H  H12  1  0.66429080  0.32582908  0.49520963  1
  H  H13  1  0.58426244  0.23962545  0.67064124  1
  H  H14  1  0.95218524  0.24075589  0.19549662  1
  H  H15  1  0.88391728  0.15805463  0.00049487  1
  H  H16  1  0.87446224  0.33461951  0.01029879  1
  H  H17  1  0.17612778  0.17553444  0.01821280  1
  H  H18  1  0.16569931  0.34108673  0.02201804  1
  H  H19  1  0.10635368  0.26108237  0.83640150  1
  H  H20  1  0.53723509  0.74509670  0.68174360  1
  H  H21  1  0.61399369  0.65564831  0.49500966  1
  H  H22  1  0.62571255  0.83260519  0.49639723  1
  H  H23  1  0.33273989  0.83783234  0.49717041  1
  H  H24  1  0.32247190  0.67317932  0.48143969  1
  H  H25  1  0.40491059  0.76295556  0.31334623  1
  H  H26  1  0.04997611  0.75259642  0.81418063  1
  H  H27  1  0.12237508  0.84947439  0.99598397  1
  H  H28  1  0.14501304  0.67315966  0.00130435  1
  H  H29  1  0.83322674  0.81952179  0.01366532  1
  H  H30  1  0.84933312  0.65612574  0.00939528  1
  H  H31  1  0.91979003  0.73951049  0.18624378  1
  Mg  Mg32  1  0.43932856  0.99503284  0.97761172  1
  Mg  Mg33  1  0.98270994  0.49004289  0.43146562  1
  Ge  Ge34  1  0.97011672  0.99695574  0.51308222  1
  Ge  Ge35  1  0.50584374  0.49740965  0.97373795  1
  Cl  Cl36  1  0.52719610  0.22250695  0.95918801  1
  Cl  Cl37  1  0.24457116  0.01524969  0.20534488  1
  Cl  Cl38  1  0.75322930  0.01112987  0.30269304  1
  Cl  Cl39  1  0.99742899  0.27522523  0.56509488  1
  Cl  Cl40  1  0.29546484  0.98663722  0.71167221  1
  Cl  Cl41  1  0.79575898  0.98272196  0.76488656  1
  Cl  Cl42  1  0.52041351  0.77329198  0.04053636  1
  Cl  Cl43  1  0.73108233  0.48228153  0.29219279  1
  Cl  Cl44  1  0.20224941  0.49283303  0.23326305  1
  Cl  Cl45  1  0.99075575  0.72572724  0.48179876  1
  Cl  Cl46  1  0.31010543  0.51221254  0.74200620  1
  Cl  Cl47  1  0.74528686  0.51454244  0.79758331  1
