# generated using pymatgen
data_MgGaH12C2(NCl3)2
_symmetry_space_group_name_H-M   'P 1'
_cell_length_a   7.67745185
_cell_length_b   9.94923533
_cell_length_c   8.19662068
_cell_angle_alpha   87.72710135
_cell_angle_beta   90.62910680
_cell_angle_gamma   91.23384439
_symmetry_Int_Tables_number   1
_chemical_formula_structural   MgGaH12C2(NCl3)2
_chemical_formula_sum   'Mg2 Ga2 H24 C4 N4 Cl12'
_cell_volume   625.42727211
_cell_formula_units_Z   2
loop_
 _symmetry_equiv_pos_site_id
 _symmetry_equiv_pos_as_xyz
  1  'x, y, z'
loop_
 _atom_site_type_symbol
 _atom_site_label
 _atom_site_symmetry_multiplicity
 _atom_site_fract_x
 _atom_site_fract_y
 _atom_site_fract_z
 _atom_site_occupancy
  C  C0  1  0.47939372  0.23441647  0.44424571  1
  C  C1  1  0.98568302  0.24554144  0.07261937  1
  C  C2  1  0.51490155  0.76415808  0.56351755  1
  C  C3  1  0.02854899  0.75757029  0.91611063  1
  N  N4  1  0.55314135  0.25784630  0.60874156  1
  N  N5  1  0.05439047  0.24114555  0.90459380  1
  N  N6  1  0.44259034  0.75569218  0.39587368  1
  N  N7  1  0.94298583  0.75011095  0.07742990  1
  H  H8  1  0.58555708  0.22835122  0.35726480  1
  H  H9  1  0.40359624  0.14004055  0.44868295  1
  H  H10  1  0.39370656  0.31762726  0.40987397  1
  H  H11  1  0.61378775  0.17299044  0.66027933  1
  H  H12  1  0.64430566  0.33645580  0.60997933  1
  H  H13  1  0.45617318  0.28372980  0.68761202  1
  H  H14  1  0.09493271  0.24422046  0.15882727  1
  H  H15  1  0.90046796  0.15743254  0.09533995  1
  H  H16  1  0.91223172  0.33773764  0.08265558  1
  H  H17  1  0.12876103  0.15624228  0.88708176  1
  H  H18  1  0.13356776  0.32435260  0.87321513  1
  H  H19  1  0.95374472  0.23962927  0.82003539  1
  H  H20  1  0.40670035  0.76915715  0.64810044  1
  H  H21  1  0.59108608  0.67441833  0.59274589  1
  H  H22  1  0.59749444  0.85483937  0.56977375  1
  H  H23  1  0.37735716  0.84217549  0.35437479  1
  H  H24  1  0.35458627  0.67606266  0.38673415  1
  H  H25  1  0.54146084  0.74387491  0.31370923  1
  H  H26  1  0.92776609  0.76017350  0.82093191  1
  H  H27  1  0.11002006  0.84891250  0.90804341  1
  H  H28  1  0.10857904  0.66876537  0.90501002  1
  H  H29  1  0.86807634  0.83430711  0.09827618  1
  H  H30  1  0.86066257  0.66691312  0.09100767  1
  H  H31  1  0.03156812  0.74383910  0.17342939  1
  Mg  Mg32  1  0.49967122  0.98712546  0.99991291  1
  Mg  Mg33  1  0.01363201  0.49618720  0.58886582  1
  Ga  Ga34  1  0.99863766  0.00283379  0.50620023  1
  Ga  Ga35  1  0.48427271  0.50228290  0.08893857  1
  Cl  Cl36  1  0.50110783  0.29258681  0.00945866  1
  Cl  Cl37  1  0.25435288  0.97996223  0.18529259  1
  Cl  Cl38  1  0.70268071  0.96918323  0.22724161  1
  Cl  Cl39  1  0.96641761  0.28588505  0.47494210  1
  Cl  Cl40  1  0.30424656  0.02371575  0.76732949  1
  Cl  Cl41  1  0.74492767  0.01905337  0.81028653  1
  Cl  Cl42  1  0.51569545  0.70519873  0.96024577  1
  Cl  Cl43  1  0.69331477  0.51925638  0.27758656  1
  Cl  Cl44  1  0.22560955  0.51238914  0.20361118  1
  Cl  Cl45  1  0.01829790  0.71186848  0.46750375  1
  Cl  Cl46  1  0.28415251  0.47800458  0.71545119  1
  Cl  Cl47  1  0.79518163  0.48581548  0.78131312  1
