# generated using pymatgen
data_MgZnH12C2(NCl3)2
_symmetry_space_group_name_H-M   'P 1'
_cell_length_a   6.69167298
_cell_length_b   11.79641468
_cell_length_c   7.90469420
_cell_angle_alpha   89.47272161
_cell_angle_beta   89.99762031
_cell_angle_gamma   89.99947733
_symmetry_Int_Tables_number   1
_chemical_formula_structural   MgZnH12C2(NCl3)2
_chemical_formula_sum   'Mg2 Zn2 H24 C4 N4 Cl12'
_cell_volume   623.95234718
_cell_formula_units_Z   2
loop_
 _symmetry_equiv_pos_site_id
 _symmetry_equiv_pos_as_xyz
  1  'x, y, z'
loop_
 _atom_site_type_symbol
 _atom_site_label
 _atom_site_symmetry_multiplicity
 _atom_site_fract_x
 _atom_site_fract_y
 _atom_site_fract_z
 _atom_site_occupancy
  C  C0  1  0.38655466  0.24677125  0.35057529  1
  C  C1  1  0.88496696  0.24824579  0.14921771  1
  C  C2  1  0.61493322  0.74822321  0.64938602  1
  C  C3  1  0.11357813  0.74683557  0.85073621  1
  N  N4  1  0.53427231  0.26394466  0.48669635  1
  N  N5  1  0.03401499  0.26201713  0.01285335  1
  N  N6  1  0.46597526  0.76210689  0.51298557  1
  N  N7  1  0.96573303  0.76384736  0.98681741  1
  H  H8  1  0.46463158  0.24201161  0.22905446  1
  H  H9  1  0.30473600  0.16841812  0.37671337  1
  H  H10  1  0.28562765  0.31968575  0.34833347  1
  H  H11  1  0.64389597  0.20213176  0.48808600  1
  H  H12  1  0.60616158  0.34243188  0.47018229  1
  H  H13  1  0.47103180  0.26151310  0.60756831  1
  H  H14  1  0.96216627  0.24274781  0.27120570  1
  H  H15  1  0.80080815  0.17062674  0.12601101  1
  H  H16  1  0.78705566  0.32248239  0.14792668  1
  H  H17  1  0.14008470  0.19830037  0.01585724  1
  H  H18  1  0.10903910  0.33941709  0.02583541  1
  H  H19  1  0.97194557  0.25915092  0.89135629  1
  H  H20  1  0.53767707  0.74274607  0.77135291  1
  H  H21  1  0.69898050  0.67056815  0.62617004  1
  H  H22  1  0.71296579  0.82241080  0.64815301  1
  H  H23  1  0.39106035  0.83953900  0.52596868  1
  H  H24  1  0.35978928  0.69844481  0.51592851  1
  H  H25  1  0.52809894  0.75921299  0.39150874  1
  H  H26  1  0.03558809  0.74208208  0.72918223  1
  H  H27  1  0.21434652  0.81982390  0.84861202  1
  H  H28  1  0.19555201  0.66852894  0.87682425  1
  H  H29  1  0.89368395  0.84228441  0.97033051  1
  H  H30  1  0.85625905  0.70194418  0.98810264  1
  H  H31  1  0.02889040  0.76142604  0.10771498  1
  Mg  Mg32  1  0.54409432  0.94941492  0.11491032  1
  Mg  Mg33  1  0.95590832  0.44945426  0.61480617  1
  Zn  Zn34  1  0.04358109  0.94374255  0.38852492  1
  Zn  Zn35  1  0.45638449  0.44371133  0.88844003  1
  Cl  Cl36  1  0.48253127  0.25371147  0.87907348  1
  Cl  Cl37  1  0.20393553  0.00852195  0.13413202  1
  Cl  Cl38  1  0.71452397  0.00826130  0.37119808  1
  Cl  Cl39  1  0.98165266  0.25487333  0.62114396  1
  Cl  Cl40  1  0.24142684  0.99482870  0.59995873  1
  Cl  Cl41  1  0.74638264  0.99672209  0.89261330  1
  Cl  Cl42  1  0.51838151  0.75483612  0.12131755  1
  Cl  Cl43  1  0.75361596  0.49679882  0.39254010  1
  Cl  Cl44  1  0.25854191  0.49476354  0.09991011  1
  Cl  Cl45  1  0.01744144  0.75373820  0.37922935  1
  Cl  Cl46  1  0.29605209  0.50856018  0.63409844  1
  Cl  Cl47  1  0.78546517  0.50821874  0.87115337  1
