# generated using pymatgen
data_CaMgH12C2(NCl3)2
_symmetry_space_group_name_H-M   'P 1'
_cell_length_a   7.26205568
_cell_length_b   10.39498900
_cell_length_c   7.68221358
_cell_angle_alpha   87.96737730
_cell_angle_beta   90.00103839
_cell_angle_gamma   89.99744442
_symmetry_Int_Tables_number   1
_chemical_formula_structural   CaMgH12C2(NCl3)2
_chemical_formula_sum   'Ca2 Mg2 H24 C4 N4 Cl12'
_cell_volume   579.55764459
_cell_formula_units_Z   2
loop_
 _symmetry_equiv_pos_site_id
 _symmetry_equiv_pos_as_xyz
  1  'x, y, z'
loop_
 _atom_site_type_symbol
 _atom_site_label
 _atom_site_symmetry_multiplicity
 _atom_site_fract_x
 _atom_site_fract_y
 _atom_site_fract_z
 _atom_site_occupancy
  C  C0  1  0.47912728  0.24636530  0.42581798  1
  C  C1  1  0.97901432  0.25353342  0.07423603  1
  C  C2  1  0.52090637  0.75364569  0.57422335  1
  C  C3  1  0.02094835  0.74647811  0.92581504  1
  N  N4  1  0.55065058  0.25305569  0.60492968  1
  N  N5  1  0.05067761  0.24698134  0.89513428  1
  N  N6  1  0.44936623  0.74688860  0.39511107  1
  N  N7  1  0.94935882  0.75310844  0.10487319  1
  H  H8  1  0.59544278  0.24701988  0.33606343  1
  H  H9  1  0.40118345  0.15715046  0.41423610  1
  H  H10  1  0.39043955  0.32964257  0.39872463  1
  H  H11  1  0.63118312  0.17354798  0.64072459  1
  H  H12  1  0.63027793  0.33477799  0.62226176  1
  H  H13  1  0.44707471  0.25543937  0.69665189  1
  H  H14  1  0.09526642  0.25294413  0.16404760  1
  H  H15  1  0.89043638  0.17022174  0.10121414  1
  H  H16  1  0.90092167  0.34272498  0.08582231  1
  H  H17  1  0.13038850  0.16528987  0.87781271  1
  H  H18  1  0.13112415  0.32651140  0.85946858  1
  H  H19  1  0.94716150  0.24457313  0.80335373  1
  H  H20  1  0.40460159  0.75299838  0.66398024  1
  H  H21  1  0.60965824  0.67041760  0.60136020  1
  H  H22  1  0.59879209  0.84290512  0.58573921  1
  H  H23  1  0.36882167  0.82635778  0.35929431  1
  H  H24  1  0.36978287  0.66513707  0.37784348  1
  H  H25  1  0.55294732  0.74448414  0.30339189  1
  H  H26  1  0.90467223  0.74713655  0.83598833  1
  H  H27  1  0.10965065  0.82972874  0.89877385  1
  H  H28  1  0.09891441  0.65722795  0.91421812  1
  H  H29  1  0.86968821  0.83484236  0.12221060  1
  H  H30  1  0.86884329  0.67360886  0.14062185  1
  H  H31  1  0.05288972  0.75550692  0.19665419  1
  Mg  Mg32  1  0.49992978  0.00002827  0.00007337  1
  Mg  Mg33  1  0.00003655  0.49993239  0.49984379  1
  Ca  Ca34  1  0.99993556  0.99993442  0.50008601  1
  Ca  Ca35  1  0.50002976  0.50003110  0.99985331  1
  Cl  Cl36  1  0.48366180  0.23865610  0.00847793  1
  Cl  Cl37  1  0.22825448  0.98326401  0.21133019  1
  Cl  Cl38  1  0.71365885  0.98485463  0.26430786  1
  Cl  Cl39  1  0.98372166  0.26130521  0.49158531  1
  Cl  Cl40  1  0.28623474  0.01515612  0.73582295  1
  Cl  Cl41  1  0.77167924  0.01674118  0.78884599  1
  Cl  Cl42  1  0.51625046  0.76139660  0.99157616  1
  Cl  Cl43  1  0.72832531  0.51670110  0.28863054  1
  Cl  Cl44  1  0.21373183  0.51508846  0.23562608  1
  Cl  Cl45  1  0.01627891  0.73857896  0.50839371  1
  Cl  Cl46  1  0.27175360  0.48327936  0.71110279  1
  Cl  Cl47  1  0.78632919  0.48487882  0.76414227  1
