# generated using pymatgen
data_SnH12C3(I3N)2
_symmetry_space_group_name_H-M   'P 1'
_cell_length_a   8.51053962
_cell_length_b   11.89641897
_cell_length_c   8.31811549
_cell_angle_alpha   90.35145278
_cell_angle_beta   88.58635447
_cell_angle_gamma   91.46130130
_symmetry_Int_Tables_number   1
_chemical_formula_structural   SnH12C3(I3N)2
_chemical_formula_sum   'Sn2 H24 C6 I12 N4'
_cell_volume   841.62424872
_cell_formula_units_Z   2
loop_
 _symmetry_equiv_pos_site_id
 _symmetry_equiv_pos_as_xyz
  1  'x, y, z'
loop_
 _atom_site_type_symbol
 _atom_site_label
 _atom_site_symmetry_multiplicity
 _atom_site_fract_x
 _atom_site_fract_y
 _atom_site_fract_z
 _atom_site_occupancy
  C  C0  1  0.42673242  0.25143207  0.43482466  1
  C  C1  1  0.91697428  0.25003916  0.07212410  1
  C  C2  1  0.58026356  0.75100417  0.57600542  1
  C  C3  1  0.07954222  0.74343113  0.92566069  1
  N  N4  1  0.56756200  0.24770504  0.53654645  1
  N  N5  1  0.05875286  0.25228469  0.96447136  1
  N  N6  1  0.44095422  0.74817096  0.47171155  1
  N  N7  1  0.93423824  0.74756234  0.02748543  1
  H  H8  1  0.46566340  0.25382786  0.30843661  1
  H  H9  1  0.35484581  0.17526316  0.45663681  1
  H  H10  1  0.35957604  0.32586607  0.46660262  1
  H  H11  1  0.63353155  0.17783531  0.50453118  1
  H  H12  1  0.63999115  0.31836742  0.52061103  1
  H  H13  1  0.53754684  0.24182774  0.65852677  1
  H  H14  1  0.95478071  0.25040353  0.19705583  1
  H  H15  1  0.84763713  0.17359990  0.04674723  1
  H  H16  1  0.84926400  0.32482614  0.04866610  1
  H  H17  1  0.12754549  0.18351479  0.98705546  1
  H  H18  1  0.12706391  0.32408491  0.98427431  1
  H  H19  1  0.03048411  0.25043903  0.84252091  1
  H  H20  1  0.53945337  0.75419801  0.70171945  1
  H  H21  1  0.64705571  0.67487379  0.55361372  1
  H  H22  1  0.65171931  0.82609045  0.54692993  1
  H  H23  1  0.37433635  0.81861776  0.49083406  1
  H  H24  1  0.36927225  0.67836336  0.49900845  1
  H  H25  1  0.47154223  0.74536700  0.34892688  1
  H  H26  1  0.04610399  0.74299004  0.79938729  1
  H  H27  1  0.15363267  0.81733312  0.95178739  1
  H  H28  1  0.14124409  0.66651946  0.95253530  1
  H  H29  1  0.87007139  0.81798808  -0.00013079  1
  H  H30  1  0.86289766  0.67707664  0.00502977  1
  H  H31  1  0.95852717  0.74990869  0.14973963  1
  C  C32  1  0.42501978  0.03199787  0.96986673  1
  C  C33  1  0.98904329  0.53203911  0.42083878  1
  Sn  Sn34  1  0.97905271  0.00816675  0.51373708  1
  Sn  Sn35  1  0.50921342  0.50976271  0.98982244  1
  I  I36  1  0.48209515  0.22210743  0.96456892  1
  I  I37  1  0.22723329  0.01315661  0.16333966  1
  I  I38  1  0.69978390  0.01005689  0.31347288  1
  I  I39  1  0.99385993  0.25124480  0.54649671  1
  I  I40  1  0.31392428  0.99544119  0.72588391  1
  I  I41  1  0.80246133  0.98469844  0.81277658  1
  I  I42  1  0.51013866  0.75081771  0.04789558  1
  I  I43  1  0.74677995  0.49815174  0.31578492  1
  I  I44  1  0.17641568  0.48988784  0.22838634  1
  I  I45  1  0.01414500  0.72574476  0.44470595  1
  I  I46  1  0.30892104  0.50777563  0.70850411  1
  I  I47  1  0.80313021  0.50821700  0.80434042  1
