# generated using pymatgen
data_MgSiH12C2(NCl3)2
_symmetry_space_group_name_H-M   'P 1'
_cell_length_a   7.86103579
_cell_length_b   9.78380351
_cell_length_c   8.21933966
_cell_angle_alpha   90.50520173
_cell_angle_beta   89.86452194
_cell_angle_gamma   90.68465895
_symmetry_Int_Tables_number   1
_chemical_formula_structural   MgSiH12C2(NCl3)2
_chemical_formula_sum   'Mg2 Si2 H24 C4 N4 Cl12'
_cell_volume   632.08491372
_cell_formula_units_Z   2
loop_
 _symmetry_equiv_pos_site_id
 _symmetry_equiv_pos_as_xyz
  1  'x, y, z'
loop_
 _atom_site_type_symbol
 _atom_site_label
 _atom_site_symmetry_multiplicity
 _atom_site_fract_x
 _atom_site_fract_y
 _atom_site_fract_z
 _atom_site_occupancy
  C  C0  1  0.47564264  0.24791927  0.44162865  1
  C  C1  1  0.98671596  0.24636977  0.05915019  1
  C  C2  1  0.51483639  0.74893425  0.57087649  1
  C  C3  1  0.02442877  0.74940122  0.92749079  1
  N  N4  1  0.54767714  0.25264403  0.60808964  1
  N  N5  1  0.05623466  0.24998638  0.89151331  1
  N  N6  1  0.43774058  0.75624747  0.40628789  1
  N  N7  1  0.94985635  0.74772385  0.09344241  1
  H  H8  1  0.57991600  0.24720151  0.35374285  1
  H  H9  1  0.39765117  0.15515272  0.42780486  1
  H  H10  1  0.39688907  0.33795784  0.42457474  1
  H  H11  1  0.62200537  0.16800750  0.63193314  1
  H  H12  1  0.62425535  0.33856726  0.63054568  1
  H  H13  1  0.45275194  0.25370658  0.69494265  1
  H  H14  1  0.09189424  0.24072629  0.14511537  1
  H  H15  1  0.90337084  0.15669432  0.07124571  1
  H  H16  1  0.91329638  0.33909234  0.08059619  1
  H  H17  1  0.12539083  0.16293209  0.85960768  1
  H  H18  1  0.13694576  0.33361041  0.87134931  1
  H  H19  1  0.95903224  0.25813887  0.80792840  1
  H  H20  1  0.41291497  0.74362817  0.66116115  1
  H  H21  1  0.59348351  0.65762808  0.57741368  1
  H  H22  1  0.59313992  0.84042641  0.59130051  1
  H  H23  1  0.36276118  0.84190436  0.38954859  1
  H  H24  1  0.36009553  0.67232512  0.38138006  1
  H  H25  1  0.52867824  0.75923118  0.31497456  1
  H  H26  1  0.92125265  0.74302793  0.83877294  1
  H  H27  1  0.09634896  0.84470428  0.91179211  1
  H  H28  1  0.10907955  0.66201698  0.91370329  1
  H  H29  1  0.86656579  0.82759258  0.11178405  1
  H  H30  1  0.87922481  0.65957029  0.11597872  1
  H  H31  1  0.04106747  0.75606313  0.18374524  1
  Mg  Mg32  1  0.42074571  0.00201375  0.99924469  1
  Mg  Mg33  1  0.01011307  0.49433306  0.58130639  1
  Si  Si34  1  0.96537478  0.01529185  0.50164699  1
  Si  Si35  1  0.49920675  0.49741930  0.03751104  1
  Cl  Cl36  1  0.52403420  0.23186636  0.02059137  1
  Cl  Cl37  1  0.22530468  0.97975372  0.21004067  1
  Cl  Cl38  1  0.75026854  0.99078397  0.32867802  1
  Cl  Cl39  1  0.96851119  0.27189941  0.46246020  1
  Cl  Cl40  1  0.29118250  0.01803874  0.74493276  1
  Cl  Cl41  1  0.80408210  0.01997720  0.72992601  1
  Cl  Cl42  1  0.56067887  0.79369224  0.00699812  1
  Cl  Cl43  1  0.68392424  0.51278584  0.24402250  1
  Cl  Cl44  1  0.26260809  0.50574788  0.19024588  1
  Cl  Cl45  1  0.01125359  0.71110561  0.47263428  1
  Cl  Cl46  1  0.27173343  0.47641461  0.71067362  1
  Cl  Cl47  1  0.78985772  0.47982227  0.76996321  1
