# generated using pymatgen
data_MgAlH12C2(NCl3)2
_symmetry_space_group_name_H-M   'P 1'
_cell_length_a   7.92116453
_cell_length_b   9.64198956
_cell_length_c   8.27129856
_cell_angle_alpha   89.25612350
_cell_angle_beta   89.38184394
_cell_angle_gamma   90.20538110
_symmetry_Int_Tables_number   1
_chemical_formula_structural   MgAlH12C2(NCl3)2
_chemical_formula_sum   'Mg2 Al2 H24 C4 N4 Cl12'
_cell_volume   631.63253910
_cell_formula_units_Z   2
loop_
 _symmetry_equiv_pos_site_id
 _symmetry_equiv_pos_as_xyz
  1  'x, y, z'
loop_
 _atom_site_type_symbol
 _atom_site_label
 _atom_site_symmetry_multiplicity
 _atom_site_fract_x
 _atom_site_fract_y
 _atom_site_fract_z
 _atom_site_occupancy
  C  C0  1  0.48785823  0.26296008  0.42843566  1
  C  C1  1  0.98348157  0.23627103  0.07885035  1
  C  C2  1  0.51757731  0.76545047  0.56657859  1
  C  C3  1  0.00285743  0.74945785  0.92211888  1
  N  N4  1  0.53899470  0.22677360  0.59536099  1
  N  N5  1  0.02413993  0.25794561  0.90491625  1
  N  N6  1  0.46192545  0.73056625  0.40129564  1
  N  N7  1  0.96265095  0.77450486  0.09495137  1
  H  H8  1  0.60063369  0.28605306  0.35580792  1
  H  H9  1  0.41925339  0.17553003  0.37707635  1
  H  H10  1  0.40539342  0.35361672  0.43239687  1
  H  H11  1  0.62203749  0.14418545  0.60158770  1
  H  H12  1  0.59958641  0.30991422  0.65082670  1
  H  H13  1  0.43664590  0.19487638  0.66721181  1
  H  H14  1  0.10089532  0.22141122  0.14488481  1
  H  H15  1  0.90336902  0.14414531  0.09132789  1
  H  H16  1  0.91635226  0.32697890  0.12416864  1
  H  H17  1  0.09248020  0.17439487  0.85901559  1
  H  H18  1  0.09898562  0.34477828  0.88389596  1
  H  H19  1  0.91641010  0.27287288  0.83730068  1
  H  H20  1  0.40868911  0.80149367  0.63664910  1
  H  H21  1  0.57061980  0.67276159  0.62402702  1
  H  H22  1  0.61349369  0.84721998  0.55859381  1
  H  H23  1  0.42828807  0.81896822  0.33506436  1
  H  H24  1  0.35425398  0.66930965  0.40612756  1
  H  H25  1  0.55648888  0.67833059  0.33849579  1
  H  H26  1  0.88628468  0.72611664  0.85841430  1
  H  H27  1  0.06348172  0.84225460  0.87061537  1
  H  H28  1  0.08918706  0.66162517  0.91396892  1
  H  H29  1  0.87187691  0.85166153  0.11023293  1
  H  H30  1  0.91413344  0.68631107  0.15361690  1
  H  H31  1  0.06942243  0.80776391  0.15553079  1
  Mg  Mg32  1  0.49862554  0.01502148  0.01300110  1
  Mg  Mg33  1  0.92657982  0.49812144  0.50215730  1
  Al  Al34  1  0.98587563  0.00105566  0.50484343  1
  Al  Al35  1  0.41937769  0.49814304  0.98483174  1
  Cl  Cl36  1  0.54317772  0.29924699  0.02739496  1
  Cl  Cl37  1  0.26870303  0.97160221  0.20807810  1
  Cl  Cl38  1  0.69266869  0.98531659  0.24181124  1
  Cl  Cl39  1  0.05116379  0.27802922  0.48921793  1
  Cl  Cl40  1  0.29070484  0.03393846  0.79557037  1
  Cl  Cl41  1  0.73402368  0.01476336  0.82141605  1
  Cl  Cl42  1  0.54239761  0.69817256  0.98281168  1
  Cl  Cl43  1  0.75712152  0.53052210  0.27819774  1
  Cl  Cl44  1  0.23010588  0.50888331  0.17318145  1
  Cl  Cl45  1  0.07792739  0.70412026  0.50883933  1
  Cl  Cl46  1  0.29878084  0.47625394  0.75398659  1
  Cl  Cl47  1  0.76504188  0.47038394  0.73561212  1
