# generated using pymatgen
data_AlBiH12C2(NCl3)2
_symmetry_space_group_name_H-M   'P 1'
_cell_length_a   7.31323800
_cell_length_b   11.16911413
_cell_length_c   8.59892836
_cell_angle_alpha   88.98745755
_cell_angle_beta   90.00113565
_cell_angle_gamma   90.10684115
_symmetry_Int_Tables_number   1
_chemical_formula_structural   AlBiH12C2(NCl3)2
_chemical_formula_sum   'Al2 Bi2 H24 C4 N4 Cl12'
_cell_volume   702.27012050
_cell_formula_units_Z   2
loop_
 _symmetry_equiv_pos_site_id
 _symmetry_equiv_pos_as_xyz
  1  'x, y, z'
loop_
 _atom_site_type_symbol
 _atom_site_label
 _atom_site_symmetry_multiplicity
 _atom_site_fract_x
 _atom_site_fract_y
 _atom_site_fract_z
 _atom_site_occupancy
  C  C0  1  0.49117097  0.25657272  0.46528005  1
  C  C1  1  0.99269711  0.24399731  0.03424554  1
  C  C2  1  0.53455618  0.75717670  0.59427522  1
  C  C3  1  0.03414773  0.74210848  0.90627913  1
  N  N4  1  0.60397895  0.22629516  0.60446806  1
  N  N5  1  0.10541103  0.27289717  0.89446378  1
  N  N6  1  0.41388006  0.72345486  0.46212641  1
  N  N7  1  0.91425074  0.77698176  0.03828138  1
  H  H8  1  0.58074336  0.28839405  0.37132602  1
  H  H9  1  0.41785225  0.17608966  0.42985034  1
  H  H10  1  0.39300635  0.32615038  0.49596849  1
  H  H11  1  0.72044683  0.17525533  0.57608099  1
  H  H12  1  0.65362690  0.30283216  0.65869401  1
  H  H13  1  0.52815521  0.17637526  0.68437103  1
  H  H14  1  0.08222792  0.21264216  0.12834915  1
  H  H15  1  0.89354952  0.17445837  0.00469697  1
  H  H16  1  0.92051146  0.32497959  0.06876829  1
  H  H17  1  0.15460064  0.19588132  0.84145220  1
  H  H18  1  0.22223994  0.32434668  0.92204707  1
  H  H19  1  0.02984067  0.32199705  0.81378501  1
  H  H20  1  0.44973499  0.79315850  0.68715731  1
  H  H21  1  0.60577365  0.67650799  0.63506348  1
  H  H22  1  0.63299247  0.82424728  0.55363727  1
  H  H23  1  0.33064276  0.79325600  0.42568810  1
  H  H24  1  0.33013596  0.65273909  0.49991576  1
  H  H25  1  0.48799477  0.69461516  0.36755108  1
  H  H26  1  0.94880539  0.70498922  0.81438916  1
  H  H27  1  0.10529484  0.82249597  0.86380453  1
  H  H28  1  0.13267990  0.67562515  0.94776120  1
  H  H29  1  0.83029021  0.84712412  -0.00041243  1
  H  H30  1  0.83132559  0.70731080  0.07642574  1
  H  H31  1  0.98903091  0.80712080  0.13186412  1
  Al  Al32  1  0.45649576  0.98921868  0.14814885  1
  Al  Al33  1  0.95690472  0.51137908  0.35235510  1
  Bi  Bi34  1  0.98115594  0.00320120  0.57483466  1
  Bi  Bi35  1  0.48028516  0.49686068  0.92489255  1
  Cl  Cl36  1  0.48239803  0.16536854  0.05236205  1
  Cl  Cl37  1  0.18752076  0.97295618  0.26012386  1
  Cl  Cl38  1  0.67290477  0.97075395  0.32046635  1
  Cl  Cl39  1  0.98053554  0.33471225  0.44679325  1
  Cl  Cl40  1  0.28339082  0.04396865  0.72483905  1
  Cl  Cl41  1  0.78749605  0.99666678  0.82839045  1
  Cl  Cl42  1  0.46776876  0.82515438  0.02291269  1
  Cl  Cl43  1  0.68949968  0.52832933  0.23792610  1
  Cl  Cl44  1  0.17604991  0.53108412  0.18263118  1
  Cl  Cl45  1  0.96709944  0.67480462  0.47903839  1
  Cl  Cl46  1  0.28677283  0.50316625  0.67125522  1
  Cl  Cl47  1  0.78215030  0.45437734  0.77567240  1
