# generated using pymatgen
data_AlTlH12C2(NCl3)2
_symmetry_space_group_name_H-M   'P 1'
_cell_length_a   7.79434642
_cell_length_b   10.93001032
_cell_length_c   7.39057621
_cell_angle_alpha   85.13197305
_cell_angle_beta   89.99207199
_cell_angle_gamma   90.03269010
_symmetry_Int_Tables_number   1
_chemical_formula_structural   AlTlH12C2(NCl3)2
_chemical_formula_sum   'Al2 Tl2 H24 C4 N4 Cl12'
_cell_volume   627.34881310
_cell_formula_units_Z   2
loop_
 _symmetry_equiv_pos_site_id
 _symmetry_equiv_pos_as_xyz
  1  'x, y, z'
loop_
 _atom_site_type_symbol
 _atom_site_label
 _atom_site_symmetry_multiplicity
 _atom_site_fract_x
 _atom_site_fract_y
 _atom_site_fract_z
 _atom_site_occupancy
  C  C0  1  0.40232706  0.24950826  0.41300800  1
  C  C1  1  0.90294943  0.25046228  0.08756768  1
  C  C2  1  0.59767000  0.75049621  0.58700495  1
  C  C3  1  0.09705560  0.74954068  0.91244396  1
  N  N4  1  0.56160673  0.24376157  0.52249068  1
  N  N5  1  0.06181699  0.25618743  0.97735974  1
  N  N6  1  0.43839071  0.75624299  0.47752163  1
  N  N7  1  0.93818739  0.74381249  0.02265070  1
  H  H8  1  0.43687692  0.25176516  0.26940709  1
  H  H9  1  0.32779319  0.16656294  0.44984717  1
  H  H10  1  0.33002510  0.33096163  0.44161073  1
  H  H11  1  0.63165261  0.16768657  0.49313415  1
  H  H12  1  0.63653113  0.32173308  0.49211708  1
  H  H13  1  0.53511744  0.23562106  0.66179516  1
  H  H14  1  0.93806754  0.24813860  0.23100441  1
  H  H15  1  0.83030203  0.16904222  0.05924642  1
  H  H16  1  0.82850699  0.33345025  0.05118063  1
  H  H17  1  0.13669962  0.17821619  0.00748520  1
  H  H18  1  0.13212095  0.33226352  0.00628739  1
  H  H19  1  0.03482720  0.26426686  0.83816353  1
  H  H20  1  0.56312108  0.74824019  0.73060534  1
  H  H21  1  0.66996983  0.66904050  0.55840263  1
  H  H22  1  0.67220639  0.83343930  0.55016382  1
  H  H23  1  0.36834604  0.83232042  0.50687884  1
  H  H24  1  0.36346431  0.67827358  0.50789618  1
  H  H25  1  0.46487951  0.76438397  0.33821822  1
  H  H26  1  0.06193759  0.75186515  0.76900662  1
  H  H27  1  0.16970208  0.83095995  0.94076682  1
  H  H28  1  0.17149850  0.66655211  0.94882902  1
  H  H29  1  0.86330357  0.82178398  0.99252644  1
  H  H30  1  0.86788571  0.66773685  0.99372223  1
  H  H31  1  0.96517691  0.73573345  0.16184771  1
  Al  Al32  1  0.50000188  0.00000173  0.00000712  1
  Al  Al33  1  0.99999948  0.50000174  0.50000577  1
  Tl  Tl34  1  0.99999959  0.00000189  0.50000627  1
  Tl  Tl35  1  0.50000084  0.50000205  0.00000582  1
  Cl  Cl36  1  0.48354034  0.21565355  0.94227859  1
  Cl  Cl37  1  0.23393432  0.00230757  0.15062922  1
  Cl  Cl38  1  0.64211854  0.01571786  0.27701932  1
  Cl  Cl39  1  0.98309944  0.28433598  0.55788030  1
  Cl  Cl40  1  0.35788404  0.98428693  0.72299581  1
  Cl  Cl41  1  0.76606936  0.99769484  0.84938562  1
  Cl  Cl42  1  0.51646425  0.78435012  0.05773630  1
  Cl  Cl43  1  0.73410257  0.49764264  0.34913000  1
  Cl  Cl44  1  0.14236009  0.48430387  0.22313741  1
  Cl  Cl45  1  0.01689817  0.71566752  0.44213222  1
  Cl  Cl46  1  0.26589608  0.50236090  0.65088199  1
  Cl  Cl47  1  0.85763859  0.51569966  0.77687465  1
