# generated using pymatgen
data_AlHgH12C2(NCl3)2
_symmetry_space_group_name_H-M   'P 1'
_cell_length_a   7.53358884
_cell_length_b   10.56108862
_cell_length_c   8.38192456
_cell_angle_alpha   83.06467777
_cell_angle_beta   89.89956971
_cell_angle_gamma   88.99686910
_symmetry_Int_Tables_number   1
_chemical_formula_structural   AlHgH12C2(NCl3)2
_chemical_formula_sum   'Al2 Hg2 H24 C4 N4 Cl12'
_cell_volume   661.90914149
_cell_formula_units_Z   2
loop_
 _symmetry_equiv_pos_site_id
 _symmetry_equiv_pos_as_xyz
  1  'x, y, z'
loop_
 _atom_site_type_symbol
 _atom_site_label
 _atom_site_symmetry_multiplicity
 _atom_site_fract_x
 _atom_site_fract_y
 _atom_site_fract_z
 _atom_site_occupancy
  C  C0  1  0.47403797  0.23074689  0.42153340  1
  C  C1  1  0.00581712  0.24221034  0.10654475  1
  C  C2  1  0.52512445  0.78800544  0.56991256  1
  C  C3  1  0.02272749  0.76053408  0.89261403  1
  N  N4  1  0.54198775  0.23682520  0.58712907  1
  N  N5  1  0.01191331  0.22841780  0.93155701  1
  N  N6  1  0.44474184  0.74595943  0.42384252  1
  N  N7  1  0.97930846  0.77756499  0.06195023  1
  H  H8  1  0.57789610  0.25917894  0.33418947  1
  H  H9  1  0.43404599  0.13302362  0.41009518  1
  H  H10  1  0.35983024  0.29630920  0.40148388  1
  H  H11  1  0.66952566  0.20029764  0.60241242  1
  H  H12  1  0.53699850  0.32915390  0.61767604  1
  H  H13  1  0.46431779  0.18142441  0.67181623  1
  H  H14  1  0.14066497  0.25389276  0.14995170  1
  H  H15  1  0.94897009  0.15540490  0.16951115  1
  H  H16  1  0.92202413  0.32483171  0.12479751  1
  H  H17  1  0.11385255  0.16626570  0.90410701  1
  H  H18  1  0.02794686  0.31454352  0.86069601  1
  H  H19  1  0.89401108  0.18989646  0.89586776  1
  H  H20  1  0.42479838  0.84071355  0.63123524  1
  H  H21  1  0.56880942  0.70375612  0.64991218  1
  H  H22  1  0.63755480  0.84940671  0.53422743  1
  H  H23  1  0.40123473  0.82321933  0.34286493  1
  H  H24  1  0.33595806  0.68924592  0.45351791  1
  H  H25  1  0.53365686  0.69165380  0.36471045  1
  H  H26  1  0.90088901  0.74028552  0.83069462  1
  H  H27  1  0.08112783  0.84863038  0.83521941  1
  H  H28  1  0.11832077  0.68137845  0.89272316  1
  H  H29  1  0.87579862  0.84303327  0.07062792  1
  H  H30  1  0.94423995  0.69291990  0.12787093  1
  H  H31  1  0.08776339  0.81261130  0.11835332  1
  Al  Al32  1  0.51402222  0.96503884  0.00411016  1
  Al  Al33  1  0.89441103  0.50425765  0.52237203  1
  Hg  Hg34  1  0.01334364  0.00144983  0.50501317  1
  Hg  Hg35  1  0.37696954  0.45691799  0.97772847  1
  Cl  Cl36  1  0.55566926  0.25478078  0.01680729  1
  Cl  Cl37  1  0.27479161  0.96811008  0.17729245  1
  Cl  Cl38  1  0.69847566  0.96675001  0.21593840  1
  Cl  Cl39  1  0.01361045  0.31914556  0.51222438  1
  Cl  Cl40  1  0.31506010  0.04103564  0.80434908  1
  Cl  Cl41  1  0.74441337  0.01847410  0.83004270  1
  Cl  Cl42  1  0.52381518  0.75772538  0.98336503  1
  Cl  Cl43  1  0.69164837  0.51567427  0.33661118  1
  Cl  Cl44  1  0.22324164  0.53087640  0.19875297  1
  Cl  Cl45  1  0.02203815  0.68556380  0.47258876  1
  Cl  Cl46  1  0.33360580  0.48761231  0.68684056  1
  Cl  Cl47  1  0.79901356  0.49532445  0.76661453  1
