# generated using pymatgen
data_AlH12AuC2(NCl3)2
_symmetry_space_group_name_H-M   'P 1'
_cell_length_a   7.61141008
_cell_length_b   9.89354816
_cell_length_c   8.18337856
_cell_angle_alpha   85.12673879
_cell_angle_beta   90.00371040
_cell_angle_gamma   90.01193161
_symmetry_Int_Tables_number   1
_chemical_formula_structural   AlH12AuC2(NCl3)2
_chemical_formula_sum   'Al2 H24 Au2 C4 N4 Cl12'
_cell_volume   614.01223877
_cell_formula_units_Z   2
loop_
 _symmetry_equiv_pos_site_id
 _symmetry_equiv_pos_as_xyz
  1  'x, y, z'
loop_
 _atom_site_type_symbol
 _atom_site_label
 _atom_site_symmetry_multiplicity
 _atom_site_fract_x
 _atom_site_fract_y
 _atom_site_fract_z
 _atom_site_occupancy
  C  C0  1  0.47217713  0.25282431  0.41405915  1
  C  C1  1  0.97233840  0.24733917  0.08602982  1
  C  C2  1  0.52158543  0.76118865  0.57305767  1
  C  C3  1  0.02184263  0.73871091  0.92694172  1
  N  N4  1  0.55608484  0.24372411  0.57838418  1
  N  N5  1  0.05595785  0.25603910  0.92159079  1
  N  N6  1  0.45374651  0.73080672  0.41039989  1
  N  N7  1  0.95374043  0.76927011  0.08942855  1
  H  H8  1  0.57457636  0.26430749  0.32044751  1
  H  H9  1  0.39713001  0.16002706  0.40069076  1
  H  H10  1  0.38456959  0.34062196  0.40371121  1
  H  H11  1  0.64759652  0.16632659  0.59213311  1
  H  H12  1  0.62364127  0.33174669  0.60020156  1
  H  H13  1  0.46553830  0.22449860  0.67177849  1
  H  H14  1  0.07487447  0.23632046  0.17952753  1
  H  H15  1  0.88491235  0.15938948  0.09689240  1
  H  H16  1  0.89709220  0.34007260  0.09904424  1
  H  H17  1  0.12397293  0.16813292  0.90025794  1
  H  H18  1  0.14705433  0.33378290  0.90718789  1
  H  H19  1  0.96525270  0.27450011  0.82825913  1
  H  H20  1  0.41162797  0.78938430  0.64882791  1
  H  H21  1  0.58665588  0.67049496  0.62984513  1
  H  H22  1  0.61567763  0.84493737  0.55623534  1
  H  H23  1  0.39578360  0.81500934  0.34726532  1
  H  H24  1  0.36069754  0.65391101  0.42021953  1
  H  H25  1  0.55423592  0.69740475  0.33865851  1
  H  H26  1  0.91197756  0.71053238  0.85101376  1
  H  H27  1  0.08714590  0.82933559  0.87017622  1
  H  H28  1  0.11578094  0.65491561  0.94400550  1
  H  H29  1  0.86076231  0.84614746  0.07929643  1
  H  H30  1  0.89563963  0.68510903  0.15261006  1
  H  H31  1  0.05412615  0.80274919  0.16127437  1
  Al  Al32  1  0.49786256  0.97737650  0.00406242  1
  Al  Al33  1  0.99777363  0.52275823  0.49609762  1
  Au  Au34  1  0.98784529  0.99234975  0.50377031  1
  Au  Au35  1  0.48787438  0.50765427  0.99634557  1
  Cl  Cl36  1  0.47521222  0.27724075  0.98921020  1
  Cl  Cl37  1  0.26094873  0.97153028  0.17570266  1
  Cl  Cl38  1  0.67038945  0.98326387  0.22835594  1
  Cl  Cl39  1  0.97510567  0.22275028  0.51087210  1
  Cl  Cl40  1  0.31445078  0.02011712  0.78842517  1
  Cl  Cl41  1  0.73586379  0.01618027  0.84153995  1
  Cl  Cl42  1  0.53565965  0.73985166  0.99179053  1
  Cl  Cl43  1  0.76098519  0.52864205  0.32427730  1
  Cl  Cl44  1  0.17040759  0.51681448  0.27187471  1
  Cl  Cl45  1  0.03590790  0.76023221  0.50819859  1
  Cl  Cl46  1  0.23567435  0.48383544  0.65872808  1
  Cl  Cl47  1  0.81426728  0.47992018  0.71159383  1
