# generated using pymatgen
data_AlH12IrC2(NCl3)2
_symmetry_space_group_name_H-M   'P 1'
_cell_length_a   7.41133209
_cell_length_b   10.64258996
_cell_length_c   7.88805964
_cell_angle_alpha   88.68827559
_cell_angle_beta   89.99158255
_cell_angle_gamma   89.99274692
_symmetry_Int_Tables_number   1
_chemical_formula_structural   AlH12IrC2(NCl3)2
_chemical_formula_sum   'Al2 H24 Ir2 C4 N4 Cl12'
_cell_volume   622.01371085
_cell_formula_units_Z   2
loop_
 _symmetry_equiv_pos_site_id
 _symmetry_equiv_pos_as_xyz
  1  'x, y, z'
loop_
 _atom_site_type_symbol
 _atom_site_label
 _atom_site_symmetry_multiplicity
 _atom_site_fract_x
 _atom_site_fract_y
 _atom_site_fract_z
 _atom_site_occupancy
  C  C0  1  0.47474484  0.20977818  0.50604420  1
  C  C1  1  0.97430343  0.29007659  0.99284914  1
  C  C2  1  0.54644345  0.76024495  0.57784669  1
  C  C3  1  0.04482531  0.74124371  0.92229807  1
  N  N4  1  0.58930830  0.23801341  0.65408124  1
  N  N5  1  0.08953076  0.26200840  0.84509911  1
  N  N6  1  0.41197081  0.71589659  0.45271535  1
  N  N7  1  0.91070998  0.78263665  0.04961024  1
  H  H8  1  0.56350304  0.19139964  0.39888340  1
  H  H9  1  0.39130704  0.12688898  0.53507638  1
  H  H10  1  0.38825056  0.29066631  0.47727958  1
  H  H11  1  0.68670541  0.16627855  0.67475867  1
  H  H12  1  0.65279369  0.32424155  0.64055061  1
  H  H13  1  0.51567311  0.24477718  0.76456336  1
  H  H14  1  0.06264675  0.30825848  0.10038010  1
  H  H15  1  0.88770053  0.20919906  0.02108339  1
  H  H16  1  0.89108809  0.37305972  0.96377842  1
  H  H17  1  0.15296466  0.17576099  0.85867406  1
  H  H18  1  0.18681265  0.33373024  0.82471602  1
  H  H19  1  0.01618383  0.25524412  0.73438137  1
  H  H20  1  0.49177398  0.74530687  0.70559516  1
  H  H21  1  0.67045102  0.70571152  0.56432898  1
  H  H22  1  0.57518993  0.85967716  0.55333034  1
  H  H23  1  0.28881828  0.76508486  0.45827051  1
  H  H24  1  0.38163072  0.62257725  0.47599877  1
  H  H25  1  0.45868016  0.72239027  0.32789102  1
  H  H26  1  0.98699387  0.75436797  0.79548643  1
  H  H27  1  0.16601449  0.79905142  0.93306745  1
  H  H28  1  0.07926411  0.64266764  0.94677025  1
  H  H29  1  0.87752410  0.87573742  0.02847296  1
  H  H30  1  0.78857307  0.73223003  0.04441709  1
  H  H31  1  0.95900118  0.77567808  0.17387493  1
  Al  Al32  1  0.40514994  0.05181395  0.08676954  1
  Al  Al33  1  0.90554058  0.44831354  0.41290589  1
  Ir  Ir34  1  0.00912459  0.03581133  0.45291112  1
  Ir  Ir35  1  0.50886638  0.46410614  0.04689926  1
  Cl  Cl36  1  0.52582352  0.24249801  0.05742425  1
  Cl  Cl37  1  0.12603895  0.03491842  0.17947156  1
  Cl  Cl38  1  0.60368860  0.95904934  0.23505001  1
  Cl  Cl39  1  0.02576393  0.25746847  0.44182782  1
  Cl  Cl40  1  0.36623208  0.99646586  0.83050314  1
  Cl  Cl41  1  0.86649897  0.02612233  0.71632746  1
  Cl  Cl42  1  0.51561461  0.67991302  0.04549585  1
  Cl  Cl43  1  0.62646393  0.46490818  0.32000977  1
  Cl  Cl44  1  0.10435748  0.54088911  0.26473702  1
  Cl  Cl45  1  0.01717462  0.81999084  0.45541154  1
  Cl  Cl46  1  0.36642469  0.47405823  0.78339615  1
  Cl  Cl47  1  0.86587971  0.50386775  0.66898295  1
