# generated using pymatgen
data_BaAlH12C2(NCl3)2
_symmetry_space_group_name_H-M   'P 1'
_cell_length_a   7.93639033
_cell_length_b   11.23484976
_cell_length_c   7.73463688
_cell_angle_alpha   85.69405970
_cell_angle_beta   89.75365803
_cell_angle_gamma   86.94848923
_symmetry_Int_Tables_number   1
_chemical_formula_structural   BaAlH12C2(NCl3)2
_chemical_formula_sum   'Ba2 Al2 H24 C4 N4 Cl12'
_cell_volume   686.73055849
_cell_formula_units_Z   2
loop_
 _symmetry_equiv_pos_site_id
 _symmetry_equiv_pos_as_xyz
  1  'x, y, z'
loop_
 _atom_site_type_symbol
 _atom_site_label
 _atom_site_symmetry_multiplicity
 _atom_site_fract_x
 _atom_site_fract_y
 _atom_site_fract_z
 _atom_site_occupancy
  C  C0  1  0.42086453  0.24971380  0.40875880  1
  C  C1  1  0.93977327  0.24169603  0.08256990  1
  C  C2  1  0.56912898  0.76214691  0.57697301  1
  C  C3  1  0.06160060  0.76080020  0.91358574  1
  N  N4  1  0.54413669  0.25573376  0.55040877  1
  N  N5  1  0.07381200  0.27559670  0.95727675  1
  N  N6  1  0.45692014  0.70509521  0.45863613  1
  N  N7  1  0.92540123  0.73916244  0.04174350  1
  H  H8  1  0.49012627  0.24534746  0.28676856  1
  H  H9  1  0.35203015  0.16847227  0.43169503  1
  H  H10  1  0.33546635  0.32955171  0.40480603  1
  H  H11  1  0.62940132  0.18317303  0.55917332  1
  H  H12  1  0.61273975  0.33186304  0.52698971  1
  H  H13  1  0.48762658  0.25900446  0.67140464  1
  H  H14  1  0.99151527  0.23947019  0.21392269  1
  H  H15  1  0.89298889  0.15533550  0.05468853  1
  H  H16  1  0.83786113  0.31113023  0.07044864  1
  H  H17  1  0.17770349  0.21595384  0.96922071  1
  H  H18  1  0.11268298  0.36002541  0.98365572  1
  H  H19  1  0.03045605  0.27853093  0.82933011  1
  H  H20  1  0.49585541  0.79251566  0.68699751  1
  H  H21  1  0.66892403  0.69586547  0.62209019  1
  H  H22  1  0.62322356  0.83907803  0.50622500  1
  H  H23  1  0.36112985  0.76209041  0.40535560  1
  H  H24  1  0.39972697  0.63214397  0.52425924  1
  H  H25  1  0.52716732  0.66857112  0.36056005  1
  H  H26  1  0.00877870  0.75970753  0.78307513  1
  H  H27  1  0.11857662  0.84522827  0.93408148  1
  H  H28  1  0.15558525  0.68626307  0.93201794  1
  H  H29  1  0.82579534  0.80201944  0.02274680  1
  H  H30  1  0.88083615  0.65484942  0.02434605  1
  H  H31  1  0.96947744  0.74108713  0.16906719  1
  Al  Al32  1  0.50111595  0.00515141  0.00768250  1
  Al  Al33  1  0.99599917  0.50438048  0.50050043  1
  Ba  Ba34  1  0.01076575  0.00315051  0.51242808  1
  Ba  Ba35  1  0.49894510  0.50824224  0.99840037  1
  Cl  Cl36  1  0.50120628  0.21606375  0.96356632  1
  Cl  Cl37  1  0.25614412  0.02001619  0.17679649  1
  Cl  Cl38  1  0.67808759  0.00753804  0.25304109  1
  Cl  Cl39  1  0.94612930  0.25264028  0.57454785  1
  Cl  Cl40  1  0.32632164  0.00957681  0.75383621  1
  Cl  Cl41  1  0.74311206  0.98815659  0.82496494  1
  Cl  Cl42  1  0.50072365  0.79466664  0.04224272  1
  Cl  Cl43  1  0.67597832  0.49056570  0.33343385  1
  Cl  Cl44  1  0.16728631  0.48986032  0.16680885  1
  Cl  Cl45  1  0.06155221  0.75962704  0.41807397  1
  Cl  Cl46  1  0.32572210  0.48139360  0.67143287  1
  Cl  Cl47  1  0.83362189  0.52182603  0.83966158  1
