# generated using pymatgen
data_AlSbH12C2(NCl3)2
_symmetry_space_group_name_H-M   'P 1'
_cell_length_a   8.78240676
_cell_length_b   11.37023447
_cell_length_c   7.11763277
_cell_angle_alpha   99.17526406
_cell_angle_beta   90.00245940
_cell_angle_gamma   90.06576279
_symmetry_Int_Tables_number   1
_chemical_formula_structural   AlSbH12C2(NCl3)2
_chemical_formula_sum   'Al2 Sb2 H24 C4 N4 Cl12'
_cell_volume   701.65832237
_cell_formula_units_Z   2
loop_
 _symmetry_equiv_pos_site_id
 _symmetry_equiv_pos_as_xyz
  1  'x, y, z'
loop_
 _atom_site_type_symbol
 _atom_site_label
 _atom_site_symmetry_multiplicity
 _atom_site_fract_x
 _atom_site_fract_y
 _atom_site_fract_z
 _atom_site_occupancy
  C  C0  1  0.43737890  0.26915925  0.50044486  1
  C  C1  1  0.93768338  0.23103907  0.99926604  1
  C  C2  1  0.55422354  0.75469974  0.49007147  1
  C  C3  1  0.05352822  0.74503778  0.01032450  1
  N  N4  1  0.58444981  0.25152356  0.59588433  1
  N  N5  1  0.08488326  0.24858518  0.90396293  1
  N  N6  1  0.40822614  0.71670076  0.39307307  1
  N  N7  1  0.90766475  0.78313297  0.10730500  1
  H  H8  1  0.46064863  0.28917813  0.35802902  1
  H  H9  1  0.37066090  0.18710040  0.49004569  1
  H  H10  1  0.37722100  0.34398437  0.58437955  1
  H  H11  1  0.64999879  0.18496181  0.51370954  1
  H  H12  1  0.64606198  0.32983622  0.61640816  1
  H  H13  1  0.56679422  0.22796437  0.72964393  1
  H  H14  1  0.96077317  0.21117144  0.14180038  1
  H  H15  1  0.87735195  0.15614566  0.91543552  1
  H  H16  1  0.87122648  0.31308935  0.00936814  1
  H  H17  1  0.14629256  0.17028728  0.88388822  1
  H  H18  1  0.15047076  0.31525904  0.98611471  1
  H  H19  1  0.06737687  0.27194458  0.77005858  1
  H  H20  1  0.53166009  0.79047291  0.63904980  1
  H  H21  1  0.62789576  0.67644525  0.48109177  1
  H  H22  1  0.60716125  0.82311449  0.41938265  1
  H  H23  1  0.33928044  0.78856165  0.38267056  1
  H  H24  1  0.34990834  0.66009917  0.46891151  1
  H  H25  1  0.43029436  0.66915095  0.25303400  1
  H  H26  1  0.03082267  0.70916591  0.86139699  1
  H  H27  1  0.12743519  0.82328803  0.01911871  1
  H  H28  1  0.10628190  0.67671260  0.08117433  1
  H  H29  1  0.84953443  0.83968367  0.03136261  1
  H  H30  1  0.83846847  0.71131802  0.11789349  1
  H  H31  1  0.92992987  0.83080496  0.24727539  1
  Al  Al32  1  0.40933379  0.01016192  0.97563506  1
  Al  Al33  1  0.90922119  0.48980058  0.52385939  1
  Sb  Sb34  1  0.97791351  0.99500925  0.52372677  1
  Sb  Sb35  1  0.47755392  0.50505798  0.97623392  1
  Cl  Cl36  1  0.55116295  0.16633103  0.00835050  1
  Cl  Cl37  1  0.21589676  0.05283140  0.16234953  1
  Cl  Cl38  1  0.75678492  0.04605207  0.33481783  1
  Cl  Cl39  1  0.05077564  0.33375226  0.49165058  1
  Cl  Cl40  1  0.32624983  0.98738816  0.68452723  1
  Cl  Cl41  1  0.81581040  0.92020033  0.76185181  1
  Cl  Cl42  1  0.50708505  0.84778068  0.03141554  1
  Cl  Cl43  1  0.71617913  0.44704477  0.33631580  1
  Cl  Cl44  1  0.25656002  0.45427657  0.16582599  1
  Cl  Cl45  1  0.00730624  0.65243140  0.46894977  1
  Cl  Cl46  1  0.31526464  0.58001934  0.73865038  1
  Cl  Cl47  1  0.82533767  0.51232197  0.81456105  1
