# generated using pymatgen
data_AlInH12C2(NCl3)2
_symmetry_space_group_name_H-M   'P 1'
_cell_length_a   7.38500028
_cell_length_b   10.76488087
_cell_length_c   7.99958438
_cell_angle_alpha   81.77530823
_cell_angle_beta   89.99853862
_cell_angle_gamma   89.99522516
_symmetry_Int_Tables_number   1
_chemical_formula_structural   AlInH12C2(NCl3)2
_chemical_formula_sum   'Al2 In2 H24 C4 N4 Cl12'
_cell_volume   629.41512518
_cell_formula_units_Z   2
loop_
 _symmetry_equiv_pos_site_id
 _symmetry_equiv_pos_as_xyz
  1  'x, y, z'
loop_
 _atom_site_type_symbol
 _atom_site_label
 _atom_site_symmetry_multiplicity
 _atom_site_fract_x
 _atom_site_fract_y
 _atom_site_fract_z
 _atom_site_occupancy
  C  C0  1  0.48513871  0.24529896  0.42406440  1
  C  C1  1  0.98523792  0.25476029  0.07592720  1
  C  C2  1  0.51333373  0.75861290  0.58555109  1
  C  C3  1  0.01331005  0.74137507  0.91450683  1
  N  N4  1  0.54936420  0.26321901  0.59459165  1
  N  N5  1  0.04934193  0.23669391  0.90540730  1
  N  N6  1  0.45409672  0.73177504  0.41712841  1
  N  N7  1  0.95413413  0.76828252  0.08291804  1
  H  H8  1  0.60194241  0.24347623  0.34062291  1
  H  H9  1  0.41263661  0.15588118  0.43330868  1
  H  H10  1  0.39416589  0.32284966  0.37729991  1
  H  H11  1  0.62660822  0.18774891  0.65097011  1
  H  H12  1  0.62801711  0.34345680  0.59298672  1
  H  H13  1  0.44273664  0.27192039  0.67560449  1
  H  H14  1  0.10210189  0.25669064  0.15925980  1
  H  H15  1  0.89437279  0.17718726  0.12287771  1
  H  H16  1  0.91263940  0.34414104  0.06660735  1
  H  H17  1  0.12807325  0.15650302  0.90707287  1
  H  H18  1  0.12647923  0.31218858  0.84886290  1
  H  H19  1  0.94265833  0.22788524  0.82451503  1
  H  H20  1  0.39440237  0.77333491  0.66154976  1
  H  H21  1  0.59278924  0.67865641  0.64574718  1
  H  H22  1  0.59698537  0.84335697  0.56936202  1
  H  H23  1  0.39849380  0.81040544  0.34443701  1
  H  H24  1  0.35659405  0.66185774  0.42686160  1
  H  H25  1  0.56103642  0.70055508  0.35018017  1
  H  H26  1  0.89436094  0.72672880  0.83852071  1
  H  H27  1  0.09287251  0.82125906  0.85428897  1
  H  H28  1  0.09685544  0.65655946  0.93073524  1
  H  H29  1  0.85677654  0.83832754  0.07315323  1
  H  H30  1  0.89834406  0.68972538  0.15559237  1
  H  H31  1  0.06111857  0.79937999  0.14988932  1
  Al  Al32  1  0.49982638  0.00053161  0.00323146  1
  Al  Al33  1  0.99978091  0.49946051  0.49676081  1
  In  In34  1  0.99832618  0.99891663  0.49889381  1
  In  In35  1  0.49823731  0.50108925  0.00108913  1
  Cl  Cl36  1  0.48260387  0.21501512  0.00884540  1
  Cl  Cl37  1  0.24527994  0.96930676  0.18631548  1
  Cl  Cl38  1  0.68903920  0.97616722  0.24010824  1
  Cl  Cl39  1  0.98258770  0.28498039  0.49109143  1
  Cl  Cl40  1  0.30730964  0.02454318  0.76821006  1
  Cl  Cl41  1  0.75500466  0.02949353  0.82288797  1
  Cl  Cl42  1  0.51431262  0.78604530  0.99791010  1
  Cl  Cl43  1  0.74526350  0.53073805  0.31363645  1
  Cl  Cl44  1  0.18902932  0.52386817  0.25990300  1
  Cl  Cl45  1  0.01423316  0.71394948  0.50214101  1
  Cl  Cl46  1  0.25493767  0.47045751  0.67711104  1
  Cl  Cl47  1  0.80723316  0.47542213  0.73176024  1
