# generated using pymatgen
data_CdH12C3(I3N)2
_symmetry_space_group_name_H-M   'P 1'
_cell_length_a   8.39379221
_cell_length_b   12.10466306
_cell_length_c   8.23983860
_cell_angle_alpha   89.17940630
_cell_angle_beta   94.51613275
_cell_angle_gamma   89.47592479
_symmetry_Int_Tables_number   1
_chemical_formula_structural   CdH12C3(I3N)2
_chemical_formula_sum   'Cd2 H24 C6 I12 N4'
_cell_volume   834.47151293
_cell_formula_units_Z   2
loop_
 _symmetry_equiv_pos_site_id
 _symmetry_equiv_pos_as_xyz
  1  'x, y, z'
loop_
 _atom_site_type_symbol
 _atom_site_label
 _atom_site_symmetry_multiplicity
 _atom_site_fract_x
 _atom_site_fract_y
 _atom_site_fract_z
 _atom_site_occupancy
  C  C0  1  0.41191835  0.24889941  0.42997997  1
  C  C1  1  0.93543538  0.25458649  0.08068860  1
  C  C2  1  0.57794033  0.74978875  0.58097217  1
  C  C3  1  0.07169610  0.74263157  0.91750095  1
  N  N4  1  0.56086217  0.25124716  0.53966280  1
  N  N5  1  0.06955021  0.25240546  0.97414802  1
  N  N6  1  0.42365548  0.74150272  0.48062041  1
  N  N7  1  0.93454033  0.74487655  0.02039686  1
  H  H8  1  0.44373020  0.25681237  0.30393344  1
  H  H9  1  0.35340579  0.16961802  0.44769892  1
  H  H10  1  0.33395410  0.31725308  0.46038556  1
  H  H11  1  0.63713011  0.18679427  0.51453399  1
  H  H12  1  0.62409412  0.32343257  0.52428737  1
  H  H13  1  0.53782174  0.24468768  0.66199746  1
  H  H14  1  0.98300291  0.26614742  0.20672120  1
  H  H15  1  0.87333436  0.17565874  0.06998622  1
  H  H16  1  0.85466688  0.32305235  0.04220737  1
  H  H17  1  0.14472209  0.18496556  0.00650550  1
  H  H18  1  0.13505586  0.32442422  0.98346153  1
  H  H19  1  0.03052284  0.24497798  0.85078785  1
  H  H20  1  0.55262004  0.76579138  0.70710862  1
  H  H21  1  0.64531977  0.67242031  0.57381696  1
  H  H22  1  0.64523912  0.81853727  0.53352628  1
  H  H23  1  0.35174061  0.81040552  0.50157359  1
  H  H24  1  0.36140949  0.67196338  0.51189134  1
  H  H25  1  0.44109925  0.73872924  0.35620491  1
  H  H26  1  0.02526690  0.74468320  0.78971235  1
  H  H27  1  0.14615468  0.81448787  0.94485769  1
  H  H28  1  0.13975400  0.66604587  0.94338068  1
  H  H29  1  0.86160677  0.81376128  0.99394363  1
  H  H30  1  0.86572442  0.67482905  0.99856227  1
  H  H31  1  0.97018794  0.74625637  0.14459491  1
  C  C32  1  0.57953049  0.03498588  0.01524762  1
  C  C33  1  0.97572424  0.52820983  0.41087943  1
  Cd  Cd34  1  0.03343105  0.04952447  0.42914871  1
  Cd  Cd35  1  0.56397143  0.54771708  0.96534777  1
  I  I36  1  0.50895848  0.21407931  0.96808228  1
  I  I37  1  0.19485860  0.00073787  0.15992189  1
  I  I38  1  0.69396288  0.01673129  0.29560538  1
  I  I39  1  0.98244715  0.25885285  0.55193524  1
  I  I40  1  0.25247995  0.96405720  0.67533910  1
  I  I41  1  0.76843820  0.00305641  0.84304628  1
  I  I42  1  0.50526450  0.76215044  0.06073626  1
  I  I43  1  0.71001630  0.48620282  0.30230670  1
  I  I44  1  0.15635564  0.49847164  0.22780083  1
  I  I45  1  0.98940001  0.71366327  0.44512922  1
  I  I46  1  0.31143328  0.47655596  0.75519147  1
  I  I47  1  0.83058920  0.50340886  0.79892899  1
