# generated using pymatgen
data_AlCdH12C2(NCl3)2
_symmetry_space_group_name_H-M   'P 1'
_cell_length_a   7.84832766
_cell_length_b   10.26453636
_cell_length_c   8.18427297
_cell_angle_alpha   85.77405791
_cell_angle_beta   90.28440708
_cell_angle_gamma   90.06963861
_symmetry_Int_Tables_number   1
_chemical_formula_structural   AlCdH12C2(NCl3)2
_chemical_formula_sum   'Al2 Cd2 H24 C4 N4 Cl12'
_cell_volume   657.51959469
_cell_formula_units_Z   2
loop_
 _symmetry_equiv_pos_site_id
 _symmetry_equiv_pos_as_xyz
  1  'x, y, z'
loop_
 _atom_site_type_symbol
 _atom_site_label
 _atom_site_symmetry_multiplicity
 _atom_site_fract_x
 _atom_site_fract_y
 _atom_site_fract_z
 _atom_site_occupancy
  C  C0  1  0.48909442  0.24897560  0.42745983  1
  C  C1  1  0.97513981  0.26606482  0.06217378  1
  C  C2  1  0.51861078  0.74430418  0.57632207  1
  C  C3  1  0.01561387  0.73558831  0.94266089  1
  N  N4  1  0.55812892  0.26671428  0.59394089  1
  N  N5  1  0.05160930  0.25306305  0.89884120  1
  N  N6  1  0.45074761  0.73656633  0.40723014  1
  N  N7  1  0.93975037  0.75224856  0.10584430  1
  H  H8  1  0.59503896  0.24177902  0.34253752  1
  H  H9  1  0.41340917  0.15916508  0.43222569  1
  H  H10  1  0.40846073  0.33289664  0.38962970  1
  H  H11  1  0.62897111  0.18647353  0.64178706  1
  H  H12  1  0.63781180  0.34784320  0.59601205  1
  H  H13  1  0.46116165  0.28107257  0.67551479  1
  H  H14  1  0.07731596  0.27510425  0.15163505  1
  H  H15  1  0.89835624  0.17900431  0.09519507  1
  H  H16  1  0.89470754  0.35341748  0.05601431  1
  H  H17  1  0.13170083  0.17334210  0.89831096  1
  H  H18  1  0.12042112  0.33526230  0.85515843  1
  H  H19  1  0.95902835  0.23748240  0.81199458  1
  H  H20  1  0.41221218  0.73372942  0.66194770  1
  H  H21  1  0.61157103  0.66586941  0.60176487  1
  H  H22  1  0.57894068  0.83983295  0.58401306  1
  H  H23  1  0.36054270  0.80855050  0.38010733  1
  H  H24  1  0.38805874  0.64863811  0.39219502  1
  H  H25  1  0.54580972  0.74846091  0.32063837  1
  H  H26  1  0.91377311  0.72052784  0.85441359  1
  H  H27  1  0.08755539  0.82358693  0.90349390  1
  H  H28  1  0.10012341  0.65049716  0.95242404  1
  H  H29  1  0.85807206  0.83171405  0.10535871  1
  H  H30  1  0.87242732  0.66958694  0.15091647  1
  H  H31  1  0.03150326  0.76656155  0.19397900  1
  Al  Al32  1  0.40405946  0.00164573  0.98091033  1
  Al  Al33  1  0.00978717  0.46499782  0.49233378  1
  Cd  Cd34  1  0.91970739  0.98095914  0.52042715  1
  Cd  Cd35  1  0.50500564  0.50342817  0.99677364  1
  Cl  Cl36  1  0.51548242  0.18900994  0.00642936  1
  Cl  Cl37  1  0.21073521  0.98521721  0.17076832  1
  Cl  Cl38  1  0.72504929  0.97792567  0.28757744  1
  Cl  Cl39  1  0.00967136  0.24453973  0.47457066  1
  Cl  Cl40  1  0.28331558  0.02321070  0.73989025  1
  Cl  Cl41  1  0.79412366  0.03699475  0.77713511  1
  Cl  Cl42  1  0.53276472  0.81788207  0.99292757  1
  Cl  Cl43  1  0.77598601  0.51779981  0.33077352  1
  Cl  Cl44  1  0.18286882  0.52099919  0.27745655  1
  Cl  Cl45  1  0.06786241  0.77252390  0.51355357  1
  Cl  Cl46  1  0.24166979  0.47073221  0.66500365  1
  Cl  Cl47  1  0.83626663  0.47828845  0.71202533  1
