# generated using pymatgen
data_AlAgH12C2(NCl3)2
_symmetry_space_group_name_H-M   'P 1'
_cell_length_a   8.02695840
_cell_length_b   9.83719179
_cell_length_c   7.49266137
_cell_angle_alpha   87.67499431
_cell_angle_beta   89.99015950
_cell_angle_gamma   90.00721653
_symmetry_Int_Tables_number   1
_chemical_formula_structural   AlAgH12C2(NCl3)2
_chemical_formula_sum   'Al2 Ag2 H24 C4 N4 Cl12'
_cell_volume   591.15392923
_cell_formula_units_Z   2
loop_
 _symmetry_equiv_pos_site_id
 _symmetry_equiv_pos_as_xyz
  1  'x, y, z'
loop_
 _atom_site_type_symbol
 _atom_site_label
 _atom_site_symmetry_multiplicity
 _atom_site_fract_x
 _atom_site_fract_y
 _atom_site_fract_z
 _atom_site_occupancy
  C  C0  1  0.43709714  0.25152553  0.43855090  1
  C  C1  1  0.93729090  0.24855684  0.06129529  1
  C  C2  1  0.56289448  0.74848109  0.56144869  1
  C  C3  1  0.06271920  0.75144631  0.93873513  1
  N  N4  1  0.59550999  0.24120186  0.53923191  1
  N  N5  1  0.09555804  0.25871335  0.96029289  1
  N  N6  1  0.40448167  0.75879247  0.46077000  1
  N  N7  1  0.90445078  0.74129474  0.03974402  1
  H  H8  1  0.46558175  0.25696663  0.29594696  1
  H  H9  1  0.36256631  0.16113922  0.47044680  1
  H  H10  1  0.37085728  0.34246291  0.47749866  1
  H  H11  1  0.65798527  0.15328701  0.50999332  1
  H  H12  1  0.67253098  0.32273851  0.50341800  1
  H  H13  1  0.57563179  0.24061362  0.67662230  1
  H  H14  1  0.96596169  0.24307079  0.20383802  1
  H  H15  1  0.87080723  0.15769203  0.02244538  1
  H  H16  1  0.86288913  0.33902560  0.02954291  1
  H  H17  1  0.17257254  0.17717504  0.99609259  1
  H  H18  1  0.15819363  0.34663701  0.98919147  1
  H  H19  1  0.07549972  0.25917438  0.82294881  1
  H  H20  1  0.53441039  0.74305742  0.70405381  1
  H  H21  1  0.62913734  0.65754080  0.52251866  1
  H  H22  1  0.63742329  0.83886657  0.52953708  1
  H  H23  1  0.34200173  0.84670628  0.48999148  1
  H  H24  1  0.32746321  0.67725444  0.49659329  1
  H  H25  1  0.42435985  0.75936746  0.32337826  1
  H  H26  1  0.03404557  0.75692045  0.79619449  1
  H  H27  1  0.12919881  0.84231566  0.97757267  1
  H  H28  1  0.13712236  0.66098186  0.97050034  1
  H  H29  1  0.82743790  0.82282941  0.00393666  1
  H  H30  1  0.84181910  0.65336774  0.01085692  1
  H  H31  1  0.92451439  0.74084180  0.17708595  1
  Al  Al32  1  0.50000162  0.99999156  -0.00000044  1
  Al  Al33  1  0.99999326  0.49999973  0.50000623  1
  Ag  Ag34  1  0.99999299  0.00000213  0.50003251  1
  Ag  Ag35  1  0.50000911  0.50001789  0.99987802  1
  Cl  Cl36  1  0.50534033  0.25500901  0.95352558  1
  Cl  Cl37  1  0.26658154  0.01131105  0.17861264  1
  Cl  Cl38  1  0.66864292  0.00615852  0.24594722  1
  Cl  Cl39  1  0.00517681  0.24499656  0.54626667  1
  Cl  Cl40  1  0.33136264  0.99384055  0.75405018  1
  Cl  Cl41  1  0.73342767  0.98868454  0.82139002  1
  Cl  Cl42  1  0.49466921  0.74499199  0.04648185  1
  Cl  Cl43  1  0.76661389  0.48873241  0.32133909  1
  Cl  Cl44  1  0.16867978  0.49386529  0.25410166  1
  Cl  Cl45  1  0.99481915  0.75501345  0.45376660  1
  Cl  Cl46  1  0.23337976  0.51127351  0.67869138  1
  Cl  Cl47  1  0.83131959  0.50614526  0.74593373  1
