# generated using pymatgen
data_AlH12RhC2(NCl3)2
_symmetry_space_group_name_H-M   'P 1'
_cell_length_a   7.36183909
_cell_length_b   10.54861375
_cell_length_c   7.69678077
_cell_angle_alpha   89.87606451
_cell_angle_beta   89.99807630
_cell_angle_gamma   89.98247444
_symmetry_Int_Tables_number   1
_chemical_formula_structural   AlH12RhC2(NCl3)2
_chemical_formula_sum   'Al2 H24 Rh2 C4 N4 Cl12'
_cell_volume   597.70899415
_cell_formula_units_Z   2
loop_
 _symmetry_equiv_pos_site_id
 _symmetry_equiv_pos_as_xyz
  1  'x, y, z'
loop_
 _atom_site_type_symbol
 _atom_site_label
 _atom_site_symmetry_multiplicity
 _atom_site_fract_x
 _atom_site_fract_y
 _atom_site_fract_z
 _atom_site_occupancy
  C  C0  1  0.46197303  0.24264114  0.38904843  1
  C  C1  1  0.96178294  0.25771465  0.11067403  1
  C  C2  1  0.49899862  0.71082391  0.56256792  1
  C  C3  1  0.99915167  0.78899693  0.93767266  1
  N  N4  1  0.57178609  0.24237558  0.55082631  1
  N  N5  1  0.07155284  0.25695083  0.94886082  1
  N  N6  1  0.45438452  0.73987704  0.37904011  1
  N  N7  1  0.95486176  0.76052714  0.12142863  1
  H  H8  1  0.54750084  0.20851428  0.28278135  1
  H  H9  1  0.34531513  0.17986746  0.40746996  1
  H  H10  1  0.41539732  0.33904793  0.36102880  1
  H  H11  1  0.62602999  0.15359199  0.57508233  1
  H  H12  1  0.68323098  0.30105123  0.53796760  1
  H  H13  1  0.50280988  0.27086788  0.66340014  1
  H  H14  1  0.04779864  0.29142611  0.21680209  1
  H  H15  1  0.91400141  0.16165714  0.13898591  1
  H  H16  1  0.84594039  0.32123306  0.09212995  1
  H  H17  1  0.18145955  0.19683890  0.96163534  1
  H  H18  1  0.12791489  0.34509814  0.92477469  1
  H  H19  1  0.00197548  0.22937405  0.83624759  1
  H  H20  1  0.37676389  0.72119510  0.64103062  1
  H  H21  1  0.54542553  0.61287600  0.57210057  1
  H  H22  1  0.60449713  0.77723923  0.60447675  1
  H  H23  1  0.37957337  0.82264139  0.36923791  1
  H  H24  1  0.38283836  0.66652170  0.31638795  1
  H  H25  1  0.57111414  0.75648507  0.30854189  1
  H  H26  1  0.87681997  0.77825611  0.85947386  1
  H  H27  1  0.04532955  0.88694906  0.92743637  1
  H  H28  1  0.10472572  0.72249726  0.89603704  1
  H  H29  1  0.88273938  0.83383555  0.18360732  1
  H  H30  1  0.88081642  0.67750358  0.13196545  1
  H  H31  1  0.07174250  0.74470986  0.19201957  1
  Al  Al32  1  0.44902048  0.95054044  0.92232292  1
  Al  Al33  1  0.94891809  0.54942617  0.57758138  1
  Rh  Rh34  1  0.00776487  0.96634611  0.54454949  1
  Rh  Rh35  1  0.50776283  0.53383562  0.95541073  1
  Cl  Cl36  1  0.49257347  0.31547303  0.94322725  1
  Cl  Cl37  1  0.28266286  0.00222292  0.14019917  1
  Cl  Cl38  1  0.75330869  0.96167645  0.36513583  1
  Cl  Cl39  1  0.99296144  0.18474800  0.55616861  1
  Cl  Cl40  1  0.30284993  0.98542691  0.67769204  1
  Cl  Cl41  1  0.70406409  0.03929029  0.88527462  1
  Cl  Cl42  1  0.53947211  0.75572904  0.98036816  1
  Cl  Cl43  1  0.78283809  0.49803867  0.35947153  1
  Cl  Cl44  1  0.25359053  0.53852471  0.13520044  1
  Cl  Cl45  1  0.03923184  0.74436171  0.52015579  1
  Cl  Cl46  1  0.20403232  0.46072398  0.61467662  1
  Cl  Cl47  1  0.80272017  0.51452897  0.82212208  1
