# generated using pymatgen
data_YAlH12C2(NCl3)2
_symmetry_space_group_name_H-M   'P 1'
_cell_length_a   7.91111069
_cell_length_b   11.22619034
_cell_length_c   7.57595658
_cell_angle_alpha   93.05739425
_cell_angle_beta   89.99987759
_cell_angle_gamma   89.97147422
_symmetry_Int_Tables_number   1
_chemical_formula_structural   YAlH12C2(NCl3)2
_chemical_formula_sum   'Y2 Al2 H24 C4 N4 Cl12'
_cell_volume   671.87529697
_cell_formula_units_Z   2
loop_
 _symmetry_equiv_pos_site_id
 _symmetry_equiv_pos_as_xyz
  1  'x, y, z'
loop_
 _atom_site_type_symbol
 _atom_site_label
 _atom_site_symmetry_multiplicity
 _atom_site_fract_x
 _atom_site_fract_y
 _atom_site_fract_z
 _atom_site_occupancy
  C  C0  1  0.39478510  0.25041755  0.41211239  1
  C  C1  1  0.89580260  0.24982172  0.08886123  1
  C  C2  1  0.60521220  0.74958805  0.58789931  1
  C  C3  1  0.10420184  0.75017985  0.91115160  1
  N  N4  1  0.54922344  0.25208407  0.52296950  1
  N  N5  1  0.04963557  0.24793202  0.97708598  1
  N  N6  1  0.45077421  0.74792194  0.47704184  1
  N  N7  1  0.95037030  0.75206612  0.02292887  1
  H  H8  1  0.43236981  0.24804982  0.27303476  1
  H  H9  1  0.32180993  0.17104692  0.43871691  1
  H  H10  1  0.32172079  0.33124932  0.44464496  1
  H  H11  1  0.62130923  0.17603827  0.49319860  1
  H  H12  1  0.62119355  0.32630546  0.49725213  1
  H  H13  1  0.52029476  0.25533029  0.65775011  1
  H  H14  1  0.93416309  0.25219695  0.22769699  1
  H  H15  1  0.82250776  0.16905554  0.05687981  1
  H  H16  1  0.82272155  0.32927532  0.06265995  1
  H  H17  1  0.12168754  0.17363355  0.00245957  1
  H  H18  1  0.12190024  0.32390136  0.00643712  1
  H  H19  1  0.02004418  0.24468379  0.84247791  1
  H  H20  1  0.56762775  0.75195849  0.72697681  1
  H  H21  1  0.67827496  0.66875518  0.55536926  1
  H  H22  1  0.67818926  0.82895760  0.56129202  1
  H  H23  1  0.37868851  0.82396753  0.50681346  1
  H  H24  1  0.37880368  0.67370022  0.50275998  1
  H  H25  1  0.47970253  0.74467555  0.34226182  1
  H  H26  1  0.06583908  0.74780677  0.77231648  1
  H  H27  1  0.17749600  0.83094587  0.94313525  1
  H  H28  1  0.17728382  0.67072609  0.93734798  1
  H  H29  1  0.87831559  0.82636348  0.99755824  1
  H  H30  1  0.87810781  0.67609583  0.99357689  1
  H  H31  1  0.97996335  0.75531361  0.15753693  1
  Al  Al32  1  0.50000313  0.00000371  0.00000812  1
  Al  Al33  1  0.99999694  0.50000098  0.49999988  1
  Y  Y34  1  0.00000073  0.00000129  0.50000878  1
  Y  Y35  1  0.49999963  0.50000397  0.00000222  1
  Cl  Cl36  1  0.47275537  0.26631664  0.93546246  1
  Cl  Cl37  1  0.15697897  0.01940993  0.19478976  1
  Cl  Cl38  1  0.70346696  0.00748773  0.34071349  1
  Cl  Cl39  1  0.97219417  0.23367915  0.56494109  1
  Cl  Cl40  1  0.29653485  0.99251744  0.65930372  1
  Cl  Cl41  1  0.84302515  0.98058944  0.80522842  1
  Cl  Cl42  1  0.52724721  0.73369101  0.06454823  1
  Cl  Cl43  1  0.65683676  0.48050436  0.30530119  1
  Cl  Cl44  1  0.20341359  0.49263185  0.15918087  1
  Cl  Cl45  1  0.02780462  0.76632278  0.43507580  1
  Cl  Cl46  1  0.34316026  0.51950111  0.69470419  1
  Cl  Cl47  1  0.79658535  0.50737273  0.84082371  1
