# generated using pymatgen
data_SrAlH12C2(NCl3)2
_symmetry_space_group_name_H-M   'P 1'
_cell_length_a   7.88011094
_cell_length_b   11.13476170
_cell_length_c   7.42679056
_cell_angle_alpha   89.05405922
_cell_angle_beta   90.75950047
_cell_angle_gamma   87.34816057
_symmetry_Int_Tables_number   1
_chemical_formula_structural   SrAlH12C2(NCl3)2
_chemical_formula_sum   'Sr2 Al2 H24 C4 N4 Cl12'
_cell_volume   650.79938195
_cell_formula_units_Z   2
loop_
 _symmetry_equiv_pos_site_id
 _symmetry_equiv_pos_as_xyz
  1  'x, y, z'
loop_
 _atom_site_type_symbol
 _atom_site_label
 _atom_site_symmetry_multiplicity
 _atom_site_fract_x
 _atom_site_fract_y
 _atom_site_fract_z
 _atom_site_occupancy
  C  C0  1  0.38972410  0.24874618  0.43341748  1
  C  C1  1  0.92111170  0.24614989  0.08886243  1
  C  C2  1  0.61027583  0.75125747  0.56659590  1
  C  C3  1  0.07888986  0.75385357  0.91114952  1
  N  N4  1  0.55449327  0.26082345  0.52788417  1
  N  N5  1  0.07442503  0.26268303  0.98009267  1
  N  N6  1  0.44550693  0.73918164  0.47212798  1
  N  N7  1  0.92557702  0.73731812  0.01991921  1
  H  H8  1  0.41250076  0.24513918  0.28875920  1
  H  H9  1  0.33546028  0.16543108  0.47943551  1
  H  H10  1  0.30628942  0.32649828  0.46423624  1
  H  H11  1  0.64238347  0.19533809  0.48823576  1
  H  H12  1  0.60422865  0.34411040  0.49508110  1
  H  H13  1  0.54265955  0.25228649  0.66659422  1
  H  H14  1  0.95766314  0.24226678  0.23168748  1
  H  H15  1  0.86063608  0.16430302  0.04834087  1
  H  H16  1  0.83476748  0.32463562  0.06584485  1
  H  H17  1  0.16525300  0.19444608  0.00712542  1
  H  H18  1  0.12589812  0.34485641  0.01353420  1
  H  H19  1  0.04468524  0.26250967  0.84247036  1
  H  H20  1  0.58749830  0.75486414  0.71125401  1
  H  H21  1  0.69370926  0.67350459  0.53577716  1
  H  H22  1  0.66454132  0.83457190  0.52057875  1
  H  H23  1  0.35761794  0.80466846  0.51177512  1
  H  H24  1  0.39576945  0.65589565  0.50493121  1
  H  H25  1  0.45734191  0.74771796  0.33341769  1
  H  H26  1  0.04233851  0.75773597  0.76832454  1
  H  H27  1  0.13936280  0.83570152  0.95167120  1
  H  H28  1  0.16523655  0.67536926  0.93416734  1
  H  H29  1  0.83474753  0.80555426  0.99288774  1
  H  H30  1  0.87410530  0.65514441  0.98647668  1
  H  H31  1  0.95531690  0.73749102  0.15754143  1
  Al  Al32  1  0.50000050  0.00000132  0.00000774  1
  Al  Al33  1  0.00000088  0.50000159  0.50000516  1
  Sr  Sr34  1  0.99999945  0.00000111  0.50000955  1
  Sr  Sr35  1  0.50000119  0.49999806  0.00000495  1
  Cl  Cl36  1  0.49171813  0.21063895  0.95515248  1
  Cl  Cl37  1  0.24967988  0.01604251  0.17355804  1
  Cl  Cl38  1  0.67270450  0.01676489  0.26774709  1
  Cl  Cl39  1  0.95779736  0.23781708  0.57828855  1
  Cl  Cl40  1  0.32729605  0.98323961  0.73226726  1
  Cl  Cl41  1  0.75032145  0.98396101  0.82645624  1
  Cl  Cl42  1  0.50828371  0.78936501  0.04486062  1
  Cl  Cl43  1  0.66975068  0.48973768  0.32685897  1
  Cl  Cl44  1  0.18716024  0.49336881  0.16610466  1
  Cl  Cl45  1  0.04220256  0.76218618  0.42172326  1
  Cl  Cl46  1  0.33025137  0.51026705  0.67315104  1
  Cl  Cl47  1  0.81284106  0.50663385  0.83390352  1
