# generated using pymatgen
data_AlAsH12C2(NCl3)2
_symmetry_space_group_name_H-M   'P 1'
_cell_length_a   7.78340459
_cell_length_b   10.78360463
_cell_length_c   8.05237021
_cell_angle_alpha   87.38718436
_cell_angle_beta   90.28703060
_cell_angle_gamma   90.34220537
_symmetry_Int_Tables_number   1
_chemical_formula_structural   AlAsH12C2(NCl3)2
_chemical_formula_sum   'Al2 As2 H24 C4 N4 Cl12'
_cell_volume   675.13859963
_cell_formula_units_Z   2
loop_
 _symmetry_equiv_pos_site_id
 _symmetry_equiv_pos_as_xyz
  1  'x, y, z'
loop_
 _atom_site_type_symbol
 _atom_site_label
 _atom_site_symmetry_multiplicity
 _atom_site_fract_x
 _atom_site_fract_y
 _atom_site_fract_z
 _atom_site_occupancy
  C  C0  1  0.48987200  0.23817933  0.43711425  1
  C  C1  1  0.98944330  0.23427226  0.07952211  1
  C  C2  1  0.51717966  0.76974162  0.57044226  1
  C  C3  1  0.97857425  0.76643585  0.90247432  1
  N  N4  1  0.53623433  0.26094192  0.61271107  1
  N  N5  1  0.07669327  0.26813018  0.92034139  1
  N  N6  1  0.46712713  0.72022529  0.40740626  1
  N  N7  1  0.93452246  0.75158344  0.08207369  1
  H  H8  1  0.60828718  0.22767503  0.36680914  1
  H  H9  1  0.41395465  0.15242127  0.43510496  1
  H  H10  1  0.41379111  0.31616509  0.38632491  1
  H  H11  1  0.61917258  0.19065131  0.66022181  1
  H  H12  1  0.59940556  0.34503104  0.62556824  1
  H  H13  1  0.42922426  0.26172823  0.68731460  1
  H  H14  1  0.08262106  0.19063896  0.16571454  1
  H  H15  1  0.88358482  0.16974166  0.05823188  1
  H  H16  1  0.94158650  0.31904633  0.13260351  1
  H  H17  1  0.11159916  0.19029714  0.85826134  1
  H  H18  1  0.19473854  0.32088018  0.94760536  1
  H  H19  1  0.00041315  0.32200615  0.84104795  1
  H  H20  1  0.41803682  0.83454695  0.60686643  1
  H  H21  1  0.52426568  0.69202031  0.66183515  1
  H  H22  1  0.64086568  0.81759215  0.55724568  1
  H  H23  1  0.46702918  0.78917365  0.31389800  1
  H  H24  1  0.34444570  0.68207717  0.41124203  1
  H  H25  1  0.55073780  0.65150316  0.37159492  1
  H  H26  1  0.86641254  0.74173975  0.82871115  1
  H  H27  1  0.01337471  0.86335319  0.87366300  1
  H  H28  1  0.08613666  0.70511532  0.87747546  1
  H  H29  1  0.84160026  0.81421546  0.11712218  1
  H  H30  1  0.89028342  0.66318871  0.11424788  1
  H  H31  1  0.04096568  0.76724355  0.15560139  1
  Al  Al32  1  0.40939992  0.98485919  0.99320075  1
  Al  Al33  1  0.93035603  0.50170920  0.50904043  1
  As  As34  1  0.96201568  0.00756241  0.48892334  1
  As  As35  1  0.40672793  0.44577945  0.00286528  1
  Cl  Cl36  1  0.54891753  0.15296713  0.02862080  1
  Cl  Cl37  1  0.23559435  0.95249088  0.20106440  1
  Cl  Cl38  1  0.74855178  0.95517207  0.30492861  1
  Cl  Cl39  1  0.07009709  0.33388547  0.49260357  1
  Cl  Cl40  1  0.27069356  0.02512464  0.76219812  1
  Cl  Cl41  1  0.79194026  0.04722621  0.71484906  1
  Cl  Cl42  1  0.53758434  0.81017166  0.97839478  1
  Cl  Cl43  1  0.73776343  0.50457473  0.30819726  1
  Cl  Cl44  1  0.22707719  0.55433226  0.16380045  1
  Cl  Cl45  1  0.04519185  0.68314367  0.49227901  1
  Cl  Cl46  1  0.31522934  0.51913444  0.74900096  1
  Cl  Cl47  1  0.79070433  0.48438322  0.74393297  1
