# generated using pymatgen
data_AlGaH12C2(NCl3)2
_symmetry_space_group_name_H-M   'P 1'
_cell_length_a   8.11756610
_cell_length_b   9.80023711
_cell_length_c   8.46123119
_cell_angle_alpha   89.52428451
_cell_angle_beta   89.92754910
_cell_angle_gamma   89.90092460
_symmetry_Int_Tables_number   1
_chemical_formula_structural   AlGaH12C2(NCl3)2
_chemical_formula_sum   'Al2 Ga2 H24 C4 N4 Cl12'
_cell_volume   673.10066582
_cell_formula_units_Z   2
loop_
 _symmetry_equiv_pos_site_id
 _symmetry_equiv_pos_as_xyz
  1  'x, y, z'
loop_
 _atom_site_type_symbol
 _atom_site_label
 _atom_site_symmetry_multiplicity
 _atom_site_fract_x
 _atom_site_fract_y
 _atom_site_fract_z
 _atom_site_occupancy
  C  C0  1  0.48752888  0.25378920  0.42664775  1
  C  C1  1  0.98430322  0.24196869  0.07359571  1
  C  C2  1  0.49458586  0.74981617  0.56877880  1
  C  C3  1  0.99447414  0.74676847  0.92999975  1
  N  N4  1  0.52989500  0.24459507  0.59707977  1
  N  N5  1  0.03158361  0.26069764  0.90521229  1
  N  N6  1  0.45914009  0.73521054  0.39734192  1
  N  N7  1  0.95960603  0.76801452  0.10063268  1
  H  H8  1  0.60130747  0.25488648  0.35740897  1
  H  H9  1  0.41456684  0.16456306  0.39425454  1
  H  H10  1  0.41583088  0.34692787  0.40506810  1
  H  H11  1  0.60333239  0.15914857  0.62527902  1
  H  H12  1  0.59747821  0.32877828  0.63271020  1
  H  H13  1  0.42594744  0.24353005  0.66756464  1
  H  H14  1  0.09575195  0.22672579  0.14396899  1
  H  H15  1  0.90271550  0.15338845  0.08429509  1
  H  H16  1  0.92040714  0.33357921  0.11416732  1
  H  H17  1  0.08886418  0.17426147  0.86116293  1
  H  H18  1  0.11465028  0.34168498  0.88615027  1
  H  H19  1  0.92996570  0.27818372  0.83452474  1
  H  H20  1  0.37896634  0.76575818  0.63216577  1
  H  H21  1  0.55317950  0.65619470  0.61204253  1
  H  H22  1  0.57744310  0.83683164  0.58415671  1
  H  H23  1  0.40773215  0.82323027  0.34954212  1
  H  H24  1  0.37840789  0.65570461  0.36955415  1
  H  H25  1  0.56723047  0.71897132  0.33567038  1
  H  H26  1  0.88159685  0.71424529  0.87129287  1
  H  H27  1  0.03613395  0.84313035  0.87774479  1
  H  H28  1  0.09026909  0.66845164  0.91936487  1
  H  H29  1  0.86675622  0.83930305  0.12349404  1
  H  H30  1  0.92489817  0.67814418  0.15676396  1
  H  H31  1  0.06426538  0.80223144  0.15749457  1
  Al  Al32  1  0.43008622  0.99733615  0.99123385  1
  Al  Al33  1  0.93559418  0.50116355  0.50685237  1
  Ga  Ga34  1  0.97575865  0.99844770  0.49053175  1
  Ga  Ga35  1  0.48148963  0.50056096  0.01178940  1
  Cl  Cl36  1  0.55283316  0.18804358  0.02094746  1
  Cl  Cl37  1  0.26338524  0.97323555  0.19252227  1
  Cl  Cl38  1  0.73342265  0.96161955  0.30946516  1
  Cl  Cl39  1  0.06043085  0.31055885  0.48111526  1
  Cl  Cl40  1  0.27822222  0.01942638  0.78023134  1
  Cl  Cl41  1  0.79452744  0.03875006  0.72458550  1
  Cl  Cl42  1  0.56379607  0.81017187  0.96831135  1
  Cl  Cl43  1  0.76779681  0.52518408  0.30782839  1
  Cl  Cl44  1  0.23751071  0.53561380  0.19175746  1
  Cl  Cl45  1  0.06593871  0.68924184  0.53118277  1
  Cl  Cl46  1  0.29804412  0.46336641  0.77841059  1
  Cl  Cl47  1  0.78237311  0.47864307  0.71840143  1
