# generated using pymatgen
data_AlZnH12C2(NCl3)2
_symmetry_space_group_name_H-M   'P 1'
_cell_length_a   7.94966030
_cell_length_b   10.44467693
_cell_length_c   8.09174999
_cell_angle_alpha   88.77752835
_cell_angle_beta   81.40950108
_cell_angle_gamma   85.90308421
_symmetry_Int_Tables_number   1
_chemical_formula_structural   AlZnH12C2(NCl3)2
_chemical_formula_sum   'Al2 Zn2 H24 C4 N4 Cl12'
_cell_volume   662.59726110
_cell_formula_units_Z   2
loop_
 _symmetry_equiv_pos_site_id
 _symmetry_equiv_pos_as_xyz
  1  'x, y, z'
loop_
 _atom_site_type_symbol
 _atom_site_label
 _atom_site_symmetry_multiplicity
 _atom_site_fract_x
 _atom_site_fract_y
 _atom_site_fract_z
 _atom_site_occupancy
  C  C0  1  0.46970183  0.24897596  0.38383937  1
  C  C1  1  0.95957622  0.22146655  0.09253064  1
  C  C2  1  0.52947979  0.77552339  0.61752020  1
  C  C3  1  0.08229242  0.76835106  0.90121738  1
  N  N4  1  0.54937489  0.21666499  0.53597971  1
  N  N5  1  0.02880405  0.25833768  0.91836761  1
  N  N6  1  0.40529727  0.77974741  0.49722615  1
  N  N7  1  0.97410036  0.74848606  0.06531547  1
  H  H8  1  0.56496896  0.28181238  0.28341737  1
  H  H9  1  0.41469115  0.16327428  0.34579659  1
  H  H10  1  0.36820910  0.32452441  0.41547644  1
  H  H11  1  0.66538037  0.16360270  0.50997043  1
  H  H12  1  0.56831107  0.29819272  0.59861333  1
  H  H13  1  0.46587207  0.16079200  0.61762676  1
  H  H14  1  0.06425217  0.20907473  0.16606505  1
  H  H15  1  0.89570889  0.13235476  0.08991649  1
  H  H16  1  0.86843294  0.29860291  0.14567315  1
  H  H17  1  0.11347873  0.18647052  0.85568067  1
  H  H18  1  0.09200204  0.34151236  0.92011187  1
  H  H19  1  0.93164849  0.27805254  0.84769022  1
  H  H20  1  0.46583591  0.82087640  0.73246148  1
  H  H21  1  0.56881805  0.67558331  0.64106751  1
  H  H22  1  0.63847468  0.82923213  0.56531590  1
  H  H23  1  0.34508524  0.87134099  0.49492128  1
  H  H24  1  0.31189541  0.71588639  0.53149449  1
  H  H25  1  0.46219824  0.75467481  0.37736491  1
  H  H26  1  0.99883221  0.78897799  0.80663328  1
  H  H27  1  0.15985874  0.84960033  0.91073819  1
  H  H28  1  0.16225417  0.67986052  0.87068817  1
  H  H29  1  0.90601635  0.83219362  0.11049989  1
  H  H30  1  0.88580522  0.68194803  0.05595955  1
  H  H31  1  0.04508421  0.71403055  0.15654142  1
  Al  Al32  1  0.54204851  0.92244121  0.07283855  1
  Al  Al33  1  0.90238683  0.51926446  0.52898553  1
  Zn  Zn34  1  0.98177187  0.02422370  0.50755859  1
  Zn  Zn35  1  0.41215105  0.43444236  0.92329498  1
  Cl  Cl36  1  0.60240718  0.27573919  0.93365234  1
  Cl  Cl37  1  0.28994254  0.00829632  0.13938582  1
  Cl  Cl38  1  0.68954796  0.95824499  0.27141383  1
  Cl  Cl39  1  0.02223867  0.32917879  0.51570928  1
  Cl  Cl40  1  0.26848157  0.04805892  0.69979585  1
  Cl  Cl41  1  0.70864876  0.96662509  0.85021791  1
  Cl  Cl42  1  0.51068402  0.71739542  0.08427186  1
  Cl  Cl43  1  0.71184046  0.52195964  0.36506088  1
  Cl  Cl44  1  0.20030101  0.47447404  0.12616970  1
  Cl  Cl45  1  0.04549446  0.68552824  0.45080078  1
  Cl  Cl46  1  0.34077219  0.49339256  0.67823150  1
  Cl  Cl47  1  0.80956541  0.55078890  0.79118824  1
