# generated using pymatgen
data_AlCuH12C2(NCl3)2
_symmetry_space_group_name_H-M   'P 1'
_cell_length_a   8.03156092
_cell_length_b   9.86726331
_cell_length_c   8.19695589
_cell_angle_alpha   85.88716206
_cell_angle_beta   89.96512005
_cell_angle_gamma   89.99452438
_symmetry_Int_Tables_number   1
_chemical_formula_structural   AlCuH12C2(NCl3)2
_chemical_formula_sum   'Al2 Cu2 H24 C4 N4 Cl12'
_cell_volume   647.93184831
_cell_formula_units_Z   2
loop_
 _symmetry_equiv_pos_site_id
 _symmetry_equiv_pos_as_xyz
  1  'x, y, z'
loop_
 _atom_site_type_symbol
 _atom_site_label
 _atom_site_symmetry_multiplicity
 _atom_site_fract_x
 _atom_site_fract_y
 _atom_site_fract_z
 _atom_site_occupancy
  C  C0  1  0.49766093  0.23143011  0.41455720  1
  C  C1  1  0.99748281  0.26862871  0.08544373  1
  C  C2  1  0.49858946  0.75518081  0.57102652  1
  C  C3  1  0.99887720  0.74479077  0.92903671  1
  N  N4  1  0.54419959  0.25242607  0.58620905  1
  N  N5  1  0.04392308  0.24754867  0.91373235  1
  N  N6  1  0.47728451  0.77415069  0.39102589  1
  N  N7  1  0.97757380  0.72585170  0.10906523  1
  H  H8  1  0.61105912  0.22389274  0.34179616  1
  H  H9  1  0.42556643  0.13747507  0.41230850  1
  H  H10  1  0.42267440  0.31783891  0.36601321  1
  H  H11  1  0.62132049  0.17508504  0.63772876  1
  H  H12  1  0.60800912  0.34252674  0.59603633  1
  H  H13  1  0.44094512  0.25928001  0.66072343  1
  H  H14  1  0.11092831  0.27626601  0.15797961  1
  H  H15  1  0.92260046  0.18220705  0.13420483  1
  H  H16  1  0.92531434  0.36255522  0.08774235  1
  H  H17  1  0.10782858  0.15748045  0.90385838  1
  H  H18  1  0.12096078  0.32490102  0.86202269  1
  H  H19  1  0.94064113  0.24059382  0.83940463  1
  H  H20  1  0.37709277  0.73630306  0.62839080  1
  H  H21  1  0.57961459  0.66770295  0.59995502  1
  H  H22  1  0.55551794  0.84667938  0.61484551  1
  H  H23  1  0.38874924  0.84714407  0.35707388  1
  H  H24  1  0.43690239  0.68529240  0.34047605  1
  H  H25  1  0.58734920  0.80674729  0.33350877  1
  H  H26  1  0.87735559  0.76349945  0.87179935  1
  H  H27  1  0.07973630  0.83236282  0.89997958  1
  H  H28  1  0.05600265  0.65334398  0.88519848  1
  H  H29  1  0.93702411  0.81469242  0.15959963  1
  H  H30  1  0.88913613  0.65278783  0.14314364  1
  H  H31  1  0.08766572  0.69337389  0.16648261  1
  Al  Al32  1  0.41680472  0.99705893  0.97523454  1
  Al  Al33  1  0.91677652  0.50303443  0.52485226  1
  Cu  Cu34  1  0.82742419  0.99251440  0.50695517  1
  Cu  Cu35  1  0.32752210  0.50726543  0.99287177  1
  Cl  Cl36  1  0.53576301  0.18834011  0.00340633  1
  Cl  Cl37  1  0.23242590  0.98094203  0.17287159  1
  Cl  Cl38  1  0.78566424  0.96257403  0.25951057  1
  Cl  Cl39  1  0.03565522  0.31171724  0.49654549  1
  Cl  Cl40  1  0.28074435  0.02099384  0.74507656  1
  Cl  Cl41  1  0.80793965  0.03688330  0.75236363  1
  Cl  Cl42  1  0.54043604  0.80401328  0.98207701  1
  Cl  Cl43  1  0.73249495  0.51921741  0.32733794  1
  Cl  Cl44  1  0.28591829  0.53734983  0.24035406  1
  Cl  Cl45  1  0.04049928  0.69603888  0.51790275  1
  Cl  Cl46  1  0.30777083  0.46294752  0.74747929  1
  Cl  Cl47  1  0.78059817  0.47914851  0.75508873  1
