# generated using pymatgen
data_ScAlH12C2(NCl3)2
_symmetry_space_group_name_H-M   'P 1'
_cell_length_a   7.78192363
_cell_length_b   10.96017173
_cell_length_c   7.45794864
_cell_angle_alpha   94.24297536
_cell_angle_beta   89.99126053
_cell_angle_gamma   89.97092332
_symmetry_Int_Tables_number   1
_chemical_formula_structural   ScAlH12C2(NCl3)2
_chemical_formula_sum   'Sc2 Al2 H24 C4 N4 Cl12'
_cell_volume   634.35406479
_cell_formula_units_Z   2
loop_
 _symmetry_equiv_pos_site_id
 _symmetry_equiv_pos_as_xyz
  1  'x, y, z'
loop_
 _atom_site_type_symbol
 _atom_site_label
 _atom_site_symmetry_multiplicity
 _atom_site_fract_x
 _atom_site_fract_y
 _atom_site_fract_z
 _atom_site_occupancy
  C  C0  1  0.39868819  0.25095507  0.41280558  1
  C  C1  1  0.89954238  0.24925422  0.08793411  1
  C  C2  1  0.60131073  0.74905018  0.58720628  1
  C  C3  1  0.10046021  0.75074841  0.91207721  1
  N  N4  1  0.55627444  0.25399946  0.52428889  1
  N  N5  1  0.05665346  0.24603069  0.97565937  1
  N  N6  1  0.44372313  0.74600589  0.47572394  1
  N  N7  1  0.94335128  0.75396893  0.02435518  1
  H  H8  1  0.43582371  0.24780393  0.27119689  1
  H  H9  1  0.32429287  0.17026767  0.44014362  1
  H  H10  1  0.32493160  0.33422133  0.44725170  1
  H  H11  1  0.62995966  0.17598568  0.49349675  1
  H  H12  1  0.62906515  0.32969137  0.49872621  1
  H  H13  1  0.52760530  0.25915925  0.66153875  1
  H  H14  1  0.93734847  0.25246400  0.22936298  1
  H  H15  1  0.82563370  0.16606751  0.05404459  1
  H  H16  1  0.82503288  0.33002346  0.06093728  1
  H  H17  1  0.12950020  0.17024515  0.00083024  1
  H  H18  1  0.13046033  0.32394162  0.00605809  1
  H  H19  1  0.02738024  0.24088114  0.83852024  1
  H  H20  1  0.56417464  0.75220440  0.72881545  1
  H  H21  1  0.67506537  0.66578358  0.55276344  1
  H  H22  1  0.67570681  0.82973692  0.55986560  1
  H  H23  1  0.37003938  0.82401954  0.50651419  1
  H  H24  1  0.37093315  0.67031438  0.50128678  1
  H  H25  1  0.47239349  0.74084507  0.33847297  1
  H  H26  1  0.06265174  0.74754034  0.77064960  1
  H  H27  1  0.17436806  0.83393560  0.94596826  1
  H  H28  1  0.17497195  0.66997934  0.93907006  1
  H  H29  1  0.87050183  0.82975337  0.99918707  1
  H  H30  1  0.86954592  0.67605695  0.99395534  1
  H  H31  1  0.97262618  0.75911746  0.16149357  1
  Al  Al32  1  0.50000247  0.00000158  0.00000740  1
  Al  Al33  1  0.99999768  0.50000210  0.50000106  1
  Sc  Sc34  1  0.00000012  0.00000173  0.50000784  1
  Sc  Sc35  1  0.50000074  0.50000204  0.00000387  1
  Cl  Cl36  1  0.47786049  0.27293158  0.94134563  1
  Cl  Cl37  1  0.15405382  0.01609216  0.21037241  1
  Cl  Cl38  1  0.71936601  0.00197120  0.33844597  1
  Cl  Cl39  1  0.97729436  0.22706683  0.55893521  1
  Cl  Cl40  1  0.28063437  0.99803334  0.66156859  1
  Cl  Cl41  1  0.84594783  0.98390827  0.78964378  1
  Cl  Cl42  1  0.52214298  0.72707235  0.05866649  1
  Cl  Cl43  1  0.65389319  0.48386125  0.28969015  1
  Cl  Cl44  1  0.21924951  0.49807325  0.16142770  1
  Cl  Cl45  1  0.02270383  0.77293559  0.44107987  1
  Cl  Cl46  1  0.34610826  0.51614266  0.71031959  1
  Cl  Cl47  1  0.78075161  0.50193045  0.83858079  1
