# generated using pymatgen
data_ZrH12C3(I3N)2
_symmetry_space_group_name_H-M   'P 1'
_cell_length_a   8.43309393
_cell_length_b   10.98703446
_cell_length_c   8.87081312
_cell_angle_alpha   85.29212439
_cell_angle_beta   90.01486220
_cell_angle_gamma   89.99238892
_symmetry_Int_Tables_number   1
_chemical_formula_structural   ZrH12C3(I3N)2
_chemical_formula_sum   'Zr2 H24 C6 I12 N4'
_cell_volume   819.14936140
_cell_formula_units_Z   2
loop_
 _symmetry_equiv_pos_site_id
 _symmetry_equiv_pos_as_xyz
  1  'x, y, z'
loop_
 _atom_site_type_symbol
 _atom_site_label
 _atom_site_symmetry_multiplicity
 _atom_site_fract_x
 _atom_site_fract_y
 _atom_site_fract_z
 _atom_site_occupancy
  C  C0  1  0.46430463  0.24332909  0.43967513  1
  C  C1  1  0.99695500  0.26061251  0.07624177  1
  C  C2  1  0.50333044  0.76040158  0.57621325  1
  C  C3  1  0.03481464  0.74285043  0.94042789  1
  N  N4  1  0.57445135  0.24196172  0.56546486  1
  N  N5  1  0.05581138  0.24700392  0.92058733  1
  N  N6  1  0.44416117  0.74736390  0.42051196  1
  N  N7  1  0.92656042  0.74413228  0.06736600  1
  H  H8  1  0.51392563  0.20641972  0.33758361  1
  H  H9  1  0.35926120  0.18889174  0.47328934  1
  H  H10  1  0.42443763  0.33707127  0.40768374  1
  H  H11  1  0.60197948  0.15473046  0.60624461  1
  H  H12  1  0.67943013  0.28215386  0.53156591  1
  H  H13  1  0.53570086  0.34962467  0.72889886  1
  H  H14  1  0.09815542  0.27729541  0.14883076  1
  H  H15  1  0.93640717  0.17627770  0.11776283  1
  H  H16  1  0.91428729  0.33768779  0.07261784  1
  H  H17  1  0.14103222  0.17877985  0.91820599  1
  H  H18  1  0.10611137  0.32731091  0.87067642  1
  H  H19  1  0.96489557  0.22226376  0.85029016  1
  H  H20  1  0.40228860  0.77678892  0.64907337  1
  H  H21  1  0.56399670  0.67593706  0.61716406  1
  H  H22  1  0.58598231  0.83744869  0.57292193  1
  H  H23  1  0.39371741  0.82781148  0.37107081  1
  H  H24  1  0.35897409  0.67915014  0.41779513  1
  H  H25  1  0.53494101  0.72295396  0.34991644  1
  H  H26  1  0.98297483  0.70511842  0.83980042  1
  H  H27  1  0.07578693  0.83591742  0.90617308  1
  H  H28  1  0.13942827  0.68778446  0.97378484  1
  H  H29  1  0.82219605  0.78561336  0.03408927  1
  H  H30  1  0.89734898  0.65756927  0.10950496  1
  H  H31  1  0.96560731  0.85141777  0.23098415  1
  C  C32  1  0.96232042  0.91263637  0.32649685  1
  C  C33  1  0.53775254  0.41129166  0.82401800  1
  Zr  Zr34  1  0.50698184  0.99417346  0.99244904  1
  Zr  Zr35  1  0.99309807  0.49429153  0.49321190  1
  I  I36  1  0.52039518  0.27243776  0.02016823  1
  I  I37  1  0.27044783  0.01422266  0.21901617  1
  I  I38  1  0.71562934  0.98960710  0.28974081  1
  I  I39  1  0.00110857  0.24228333  0.50431009  1
  I  I40  1  0.29659101  0.02448141  0.75136276  1
  I  I41  1  0.78899614  0.01598722  0.82479480  1
  I  I42  1  0.49960085  0.74216871  0.00419064  1
  I  I43  1  0.71129108  0.51604846  0.32496809  1
  I  I44  1  0.20351915  0.52497111  0.25218708  1
  I  I45  1  0.97942013  0.77258018  0.52156193  1
  I  I46  1  0.22957108  0.51410384  0.71998285  1
  I  I47  1  0.78404499  0.48911994  0.78942065  1
