# generated using pymatgen
data_CaAlH12C2(NCl3)2
_symmetry_space_group_name_H-M   'P 1'
_cell_length_a   7.80218167
_cell_length_b   10.97821711
_cell_length_c   7.34936327
_cell_angle_alpha   89.20657628
_cell_angle_beta   90.84526514
_cell_angle_gamma   88.44451411
_symmetry_Int_Tables_number   1
_chemical_formula_structural   CaAlH12C2(NCl3)2
_chemical_formula_sum   'Ca2 Al2 H24 C4 N4 Cl12'
_cell_volume   629.13831438
_cell_formula_units_Z   2
loop_
 _symmetry_equiv_pos_site_id
 _symmetry_equiv_pos_as_xyz
  1  'x, y, z'
loop_
 _atom_site_type_symbol
 _atom_site_label
 _atom_site_symmetry_multiplicity
 _atom_site_fract_x
 _atom_site_fract_y
 _atom_site_fract_z
 _atom_site_occupancy
  C  C0  1  0.40888328  0.25063012  0.43405154  1
  C  C1  1  0.92615692  0.24978210  0.07847749  1
  C  C2  1  0.59111671  0.74937306  0.56595904  1
  C  C3  1  0.07383966  0.75022118  0.92153512  1
  N  N4  1  0.57433657  0.25944763  0.53322185  1
  N  N5  1  0.08504923  0.26098882  0.97293426  1
  N  N6  1  0.42566412  0.74055744  0.46679121  1
  N  N7  1  0.91494527  0.73901302  0.02707535  1
  H  H8  1  0.43476421  0.24807398  0.28852924  1
  H  H9  1  0.34799714  0.16694473  0.47704696  1
  H  H10  1  0.32906329  0.33054369  0.46513152  1
  H  H11  1  0.65821841  0.18999034  0.49694521  1
  H  H12  1  0.63105536  0.34154352  0.49925453  1
  H  H13  1  0.55887108  0.25333073  0.67321254  1
  H  H14  1  0.96004860  0.24672548  0.22341797  1
  H  H15  1  0.86112996  0.16728147  0.03865294  1
  H  H16  1  0.84472242  0.33040649  0.04992523  1
  H  H17  1  0.17018792  0.18951085  0.00374545  1
  H  H18  1  0.14362096  0.34229654  0.00715143  1
  H  H19  1  0.05920016  0.26017941  0.83313205  1
  H  H20  1  0.56524026  0.75192877  0.71148940  1
  H  H21  1  0.67094183  0.66945752  0.53488272  1
  H  H22  1  0.65201227  0.83305946  0.52296965  1
  H  H23  1  0.34179110  0.81001490  0.50307118  1
  H  H24  1  0.36894852  0.65846418  0.50075952  1
  H  H25  1  0.44113336  0.74667523  0.32680408  1
  H  H26  1  0.03995116  0.75327902  0.77659385  1
  H  H27  1  0.13886441  0.83272380  0.96136170  1
  H  H28  1  0.15527716  0.66959875  0.95008842  1
  H  H29  1  0.82980631  0.81048870  0.99626252  1
  H  H30  1  0.85637760  0.65770359  0.99285663  1
  H  H31  1  0.94079311  0.73982164  0.16687717  1
  Al  Al32  1  0.50000835  0.00000136  0.00000843  1
  Al  Al33  1  0.00000248  0.50000070  0.50000694  1
  Ca  Ca34  1  0.00002892  0.00000366  0.49998585  1
  Ca  Ca35  1  0.49999988  0.49999402  0.00000674  1
  Cl  Cl36  1  0.49732039  0.21216847  0.95798202  1
  Cl  Cl37  1  0.25005524  0.01480982  0.18218551  1
  Cl  Cl38  1  0.68344176  0.01493304  0.26901151  1
  Cl  Cl39  1  0.97912387  0.23032185  0.56384102  1
  Cl  Cl40  1  0.31655238  0.98507138  0.73100132  1
  Cl  Cl41  1  0.74993657  0.98519602  0.81783235  1
  Cl  Cl42  1  0.50267200  0.78783768  0.04203258  1
  Cl  Cl43  1  0.67360383  0.49274662  0.30836459  1
  Cl  Cl44  1  0.20643728  0.49310570  0.17429523  1
  Cl  Cl45  1  0.02087345  0.76967851  0.43617087  1
  Cl  Cl46  1  0.32639785  0.50725889  0.69164731  1
  Cl  Cl47  1  0.79356111  0.50689438  0.82571653  1
