# generated using pymatgen
data_AlPH12C2(NCl3)2
_symmetry_space_group_name_H-M   'P 1'
_cell_length_a   7.37189051
_cell_length_b   10.96415248
_cell_length_c   8.19163313
_cell_angle_alpha   90.45595490
_cell_angle_beta   88.30358128
_cell_angle_gamma   84.37826513
_symmetry_Int_Tables_number   1
_chemical_formula_structural   AlPH12C2(NCl3)2
_chemical_formula_sum   'Al2 P2 H24 C4 N4 Cl12'
_cell_volume   658.58876231
_cell_formula_units_Z   2
loop_
 _symmetry_equiv_pos_site_id
 _symmetry_equiv_pos_as_xyz
  1  'x, y, z'
loop_
 _atom_site_type_symbol
 _atom_site_label
 _atom_site_symmetry_multiplicity
 _atom_site_fract_x
 _atom_site_fract_y
 _atom_site_fract_z
 _atom_site_occupancy
  C  C0  1  0.54792095  0.28851213  0.40344087  1
  C  C1  1  0.98239723  0.25856415  0.06799682  1
  C  C2  1  0.45814473  0.74782817  0.59649468  1
  C  C3  1  0.06178468  0.74170637  0.95811638  1
  N  N4  1  0.47764400  0.21697781  0.54161331  1
  N  N5  1  0.01255404  0.26260080  0.88804040  1
  N  N6  1  0.47537965  0.71864376  0.41819821  1
  N  N7  1  0.96253131  0.75812489  0.11785596  1
  H  H8  1  0.69658318  0.27814356  0.40470884  1
  H  H9  1  0.50209395  0.25167516  0.28896680  1
  H  H10  1  0.49438002  0.38443320  0.41870416  1
  H  H11  1  0.54122119  0.12833483  0.53976476  1
  H  H12  1  0.49762389  0.25653434  0.65459258  1
  H  H13  1  0.33806187  0.21226248  0.53318041  1
  H  H14  1  0.09696065  0.20242192  0.11951481  1
  H  H15  1  0.85452974  0.21883838  0.09444869  1
  H  H16  1  0.97584313  0.35233131  0.11545120  1
  H  H17  1  0.02084662  0.17637023  0.83522867  1
  H  H18  1  0.13645662  0.29773990  0.86193851  1
  H  H19  1  0.90925327  0.31810554  0.83351537  1
  H  H20  1  0.32141917  0.79242549  0.62404884  1
  H  H21  1  0.47979453  0.66267651  0.66521146  1
  H  H22  1  0.56195744  0.80857696  0.62594994  1
  H  H23  1  0.45801812  0.79644434  0.34760619  1
  H  H24  1  0.38177229  0.65977361  0.38053885  1
  H  H25  1  0.60328095  0.67427737  0.38820194  1
  H  H26  1  0.98967000  0.68178691  0.88068757  1
  H  H27  1  0.06517035  0.83095884  0.89992531  1
  H  H28  1  0.19996111  0.69867003  0.97579907  1
  H  H29  1  0.82892697  0.79263890  0.10050073  1
  H  H30  1  0.95788960  0.67473455  0.17508165  1
  H  H31  1  0.01762895  0.81863508  0.20847275  1
  Al  Al32  1  0.48218877  0.97750937  0.98018004  1
  Al  Al33  1  0.96914305  0.44445141  0.52270815  1
  P  P34  1  0.01827367  0.92220756  0.43196830  1
  P  P35  1  0.48081693  0.49136089  0.00244089  1
  Cl  Cl36  1  0.43385959  0.30489529  0.93713099  1
  Cl  Cl37  1  0.35302064  0.04539253  0.20629609  1
  Cl  Cl38  1  0.75357623  0.99364974  0.35854729  1
  Cl  Cl39  1  0.03451449  0.24824999  0.48095172  1
  Cl  Cl40  1  0.28865622  0.01648062  0.78922788  1
  Cl  Cl41  1  0.73963315  0.03341987  0.89530280  1
  Cl  Cl42  1  0.53538629  0.78125774  0.01714053  1
  Cl  Cl43  1  0.83236134  0.52123900  0.31127332  1
  Cl  Cl44  1  0.27721927  0.51823427  0.19874516  1
  Cl  Cl45  1  0.93462049  0.77238091  0.56877379  1
  Cl  Cl46  1  0.20794470  0.50219816  0.62837198  1
  Cl  Cl47  1  0.75110870  0.46540341  0.70744191  1
