# generated using pymatgen
data_SiH12PbC2(NCl3)2
_symmetry_space_group_name_H-M   'P 1'
_cell_length_a   8.20618059
_cell_length_b   11.06796187
_cell_length_c   7.43131339
_cell_angle_alpha   89.53883490
_cell_angle_beta   90.01230087
_cell_angle_gamma   89.98794465
_symmetry_Int_Tables_number   1
_chemical_formula_structural   SiH12PbC2(NCl3)2
_chemical_formula_sum   'Si2 H24 Pb2 C4 N4 Cl12'
_cell_volume   674.93230148
_cell_formula_units_Z   2
loop_
 _symmetry_equiv_pos_site_id
 _symmetry_equiv_pos_as_xyz
  1  'x, y, z'
loop_
 _atom_site_type_symbol
 _atom_site_label
 _atom_site_symmetry_multiplicity
 _atom_site_fract_x
 _atom_site_fract_y
 _atom_site_fract_z
 _atom_site_occupancy
  C  C0  1  0.43678208  0.25670879  0.45356545  1
  C  C1  1  0.93655145  0.24330370  0.04568562  1
  C  C2  1  0.56726129  0.75064439  0.55633617  1
  C  C3  1  0.06677833  0.74967269  0.94417118  1
  N  N4  1  0.59962542  0.24622827  0.54022507  1
  N  N5  1  0.09931266  0.25253284  0.95859896  1
  N  N6  1  0.39857868  0.75488200  0.48436577  1
  N  N7  1  0.89820396  0.74623342  0.01656377  1
  H  H8  1  0.45294053  0.25645067  0.30736949  1
  H  H9  1  0.36354650  0.17879497  0.49498658  1
  H  H10  1  0.37891429  0.34039975  0.49783259  1
  H  H11  1  0.65612976  0.16728022  0.50097914  1
  H  H12  1  0.67532780  0.31717905  0.50329641  1
  H  H13  1  0.58843666  0.24536462  0.68045162  1
  H  H14  1  0.95304871  0.24390803  0.19183990  1
  H  H15  1  0.87773499  0.15984858  0.00212359  1
  H  H16  1  0.86405352  0.32155450  0.00387308  1
  H  H17  1  0.17448005  0.18132369  0.99599949  1
  H  H18  1  0.15667718  0.33129209  0.99678594  1
  H  H19  1  0.08781253  0.25287066  0.81835530  1
  H  H20  1  0.56052516  0.75174774  0.70324106  1
  H  H21  1  0.62682895  0.66779247  0.51165084  1
  H  H22  1  0.63327174  0.83029072  0.50833473  1
  H  H23  1  0.33931610  0.83155221  0.53397279  1
  H  H24  1  0.33456180  0.67895948  0.52803584  1
  H  H25  1  0.39903822  0.75883923  0.34467111  1
  H  H26  1  0.05963374  0.74842838  0.79729333  1
  H  H27  1  0.12712284  0.83223015  0.98857054  1
  H  H28  1  0.13223251  0.66971170  0.99213028  1
  H  H29  1  0.83467596  0.82241614  0.97285581  1
  H  H30  1  0.83831843  0.66980195  0.96731355  1
  H  H31  1  0.89900070  0.74243075  0.15627800  1
  Si  Si32  1  0.49612658  0.99053456  0.02944961  1
  Si  Si33  1  0.99570053  0.50909624  0.47073793  1
  Pb  Pb34  1  0.00070687  0.99971601  0.49945904  1
  Pb  Pb35  1  0.50020968  0.49990167  0.00104539  1
  Cl  Cl36  1  0.50111673  0.25790247  0.95431914  1
  Cl  Cl37  1  0.25752771  0.01720372  0.18397353  1
  Cl  Cl38  1  0.66787462  0.01437453  0.27066858  1
  Cl  Cl39  1  0.00129457  0.24182920  0.54459252  1
  Cl  Cl40  1  0.27323891  0.98291089  0.69344236  1
  Cl  Cl41  1  0.80449004  0.98016735  0.78555819  1
  Cl  Cl42  1  0.49243516  0.77795100  0.06317832  1
  Cl  Cl43  1  0.75645562  0.48250659  0.31721680  1
  Cl  Cl44  1  0.16591832  0.48504144  0.22898199  1
  Cl  Cl45  1  0.99240995  0.72189253  0.43724938  1
  Cl  Cl46  1  0.30477227  0.52045476  0.71426187  1
  Cl  Cl47  1  0.77302361  0.51792146  0.80840896  1
