# generated using pymatgen
data_TlSiH12C2(NCl3)2
_symmetry_space_group_name_H-M   'P 1'
_cell_length_a   7.84124815
_cell_length_b   11.18355349
_cell_length_c   7.63755856
_cell_angle_alpha   84.41733227
_cell_angle_beta   90.40861107
_cell_angle_gamma   88.78828549
_symmetry_Int_Tables_number   1
_chemical_formula_structural   TlSiH12C2(NCl3)2
_chemical_formula_sum   'Tl2 Si2 H24 C4 N4 Cl12'
_cell_volume   666.40632453
_cell_formula_units_Z   2
loop_
 _symmetry_equiv_pos_site_id
 _symmetry_equiv_pos_as_xyz
  1  'x, y, z'
loop_
 _atom_site_type_symbol
 _atom_site_label
 _atom_site_symmetry_multiplicity
 _atom_site_fract_x
 _atom_site_fract_y
 _atom_site_fract_z
 _atom_site_occupancy
  C  C0  1  0.42671053  0.24407819  0.41684342  1
  C  C1  1  0.93137969  0.24682515  0.08366845  1
  C  C2  1  0.56238342  0.75105030  0.57396225  1
  C  C3  1  0.05942168  0.75750511  0.92710051  1
  N  N4  1  0.56653539  0.27897379  0.53219727  1
  N  N5  1  0.08353978  0.27468880  0.97468259  1
  N  N6  1  0.42972710  0.71561933  0.45068342  1
  N  N7  1  0.92603652  0.72005286  0.05712918  1
  H  H8  1  0.47595298  0.24071923  0.28387651  1
  H  H9  1  0.38209110  0.15549032  0.46706422  1
  H  H10  1  0.32407150  0.31178378  0.41651771  1
  H  H11  1  0.67370062  0.22405054  0.53032842  1
  H  H12  1  0.60670843  0.36626582  0.48757609  1
  H  H13  1  0.52912359  0.27610728  0.66242982  1
  H  H14  1  0.96897393  0.24303208  0.22249647  1
  H  H15  1  0.87827329  0.16187419  0.05180790  1
  H  H16  1  0.83726311  0.31992774  0.05589506  1
  H  H17  1  0.17623681  0.20743701  0.99644523  1
  H  H18  1  0.13426653  0.35550386  0.01038933  1
  H  H19  1  0.05336882  0.28380555  0.84095031  1
  H  H20  1  0.51178166  0.74268175  0.70752872  1
  H  H21  1  0.67444172  0.69197197  0.56530502  1
  H  H22  1  0.59503248  0.84465954  0.53731133  1
  H  H23  1  0.31143657  0.75874259  0.46213246  1
  H  H24  1  0.40584806  0.62439921  0.47371909  1
  H  H25  1  0.46751638  0.73256807  0.32094581  1
  H  H26  1  0.00660120  0.75759739  0.79408935  1
  H  H27  1  0.10364348  0.84656445  0.95127468  1
  H  H28  1  0.16454781  0.69151666  0.94488644  1
  H  H29  1  0.81451148  0.77072839  0.03528513  1
  H  H30  1  0.89793264  0.63062339  0.05077168  1
  H  H31  1  0.96667682  0.72848982  0.18673292  1
  Si  Si32  1  0.50340131  0.00276155  0.99358447  1
  Si  Si33  1  0.00683339  0.49189264  0.52253874  1
  Tl  Tl34  1  0.99538386  0.00635538  0.48697143  1
  Tl  Tl35  1  0.50510636  0.50353876  0.99420485  1
  Cl  Cl36  1  0.50223704  0.20470044  0.94764755  1
  Cl  Cl37  1  0.25861462  0.01271727  0.14386057  1
  Cl  Cl38  1  0.64871828  0.00984073  0.24564648  1
  Cl  Cl39  1  0.98042434  0.27559917  0.56577756  1
  Cl  Cl40  1  0.35452268  0.99289309  0.74793468  1
  Cl  Cl41  1  0.74798998  0.99194482  0.84760242  1
  Cl  Cl42  1  0.50642442  0.79997982  0.04213265  1
  Cl  Cl43  1  0.68364319  0.51373802  0.32890264  1
  Cl  Cl44  1  0.18507560  0.48994522  0.17534909  1
  Cl  Cl45  1  0.03412712  0.75919289  0.44656261  1
  Cl  Cl46  1  0.27740071  0.47760461  0.65924794  1
  Cl  Cl47  1  0.86438570  0.51203971  0.78030612  1
