# generated using pymatgen
data_SiHgH12C2(NCl3)2
_symmetry_space_group_name_H-M   'P 1'
_cell_length_a   6.90350206
_cell_length_b   10.87212608
_cell_length_c   8.49193426
_cell_angle_alpha   78.09431181
_cell_angle_beta   90.50728873
_cell_angle_gamma   90.67604009
_symmetry_Int_Tables_number   1
_chemical_formula_structural   SiHgH12C2(NCl3)2
_chemical_formula_sum   'Si2 Hg2 H24 C4 N4 Cl12'
_cell_volume   623.60086982
_cell_formula_units_Z   2
loop_
 _symmetry_equiv_pos_site_id
 _symmetry_equiv_pos_as_xyz
  1  'x, y, z'
loop_
 _atom_site_type_symbol
 _atom_site_label
 _atom_site_symmetry_multiplicity
 _atom_site_fract_x
 _atom_site_fract_y
 _atom_site_fract_z
 _atom_site_occupancy
  C  C0  1  0.46805071  0.22852789  0.40406734  1
  C  C1  1  0.00274539  0.28460198  0.08169002  1
  C  C2  1  0.47952786  0.77068580  0.59665845  1
  C  C3  1  0.02178683  0.72412203  0.90877671  1
  N  N4  1  0.51168006  0.25024424  0.56803368  1
  N  N5  1  0.03617328  0.24164746  0.92922855  1
  N  N6  1  0.48608500  0.74119099  0.43356183  1
  N  N7  1  0.99344527  0.76072278  0.06604661  1
  H  H8  1  0.55941914  0.29141479  0.31758015  1
  H  H9  1  0.49822528  0.13049326  0.40065960  1
  H  H10  1  0.31511348  0.24885961  0.37748334  1
  H  H11  1  0.65983864  0.24561869  0.59042949  1
  H  H12  1  0.46730232  0.33783411  0.58270174  1
  H  H13  1  0.44358285  0.18277660  0.65578254  1
  H  H14  1  0.13953464  0.32123391  0.12054651  1
  H  H15  1  0.95052540  0.20486354  0.17243708  1
  H  H16  1  0.89420773  0.35894542  0.06011590  1
  H  H17  1  0.14471906  0.17537562  0.94177684  1
  H  H18  1  0.07929876  0.31625530  0.83806729  1
  H  H19  1  0.91363929  0.20006547  0.89025061  1
  H  H20  1  0.32817314  0.78301546  0.62663562  1
  H  H21  1  0.54325786  0.69251693  0.68282435  1
  H  H22  1  0.56240477  0.85728804  0.59616509  1
  H  H23  1  0.42968059  0.81423841  0.34717056  1
  H  H24  1  0.40720710  0.66069339  0.42596457  1
  H  H25  1  0.62733585  0.72689950  0.40186155  1
  H  H26  1  0.97348671  0.80096911  0.81247407  1
  H  H27  1  0.17583551  0.70618951  0.89538888  1
  H  H28  1  0.93649831  0.63895708  0.90612613  1
  H  H29  1  0.07103228  0.84129582  0.07583030  1
  H  H30  1  0.84792202  0.77720802  0.08303452  1
  H  H31  1  0.03935436  0.68933091  0.15995069  1
  Si  Si32  1  0.52413834  0.00107365  0.00718587  1
  Si  Si33  1  0.97452217  0.49973432  0.50028108  1
  Hg  Hg34  1  0.02286620  0.99911353  0.50565073  1
  Hg  Hg35  1  0.47616532  0.50097739  0.99951232  1
  Cl  Cl36  1  0.51613882  0.20727997  0.98675426  1
  Cl  Cl37  1  0.27453101  0.97713906  0.18369087  1
  Cl  Cl38  1  0.73212861  0.98177933  0.20896384  1
  Cl  Cl39  1  0.97941706  0.29168384  0.51524321  1
  Cl  Cl40  1  0.30275806  0.01743798  0.80747635  1
  Cl  Cl41  1  0.76106498  0.02276399  0.82711059  1
  Cl  Cl42  1  0.52440105  0.79303167  0.02509697  1
  Cl  Cl43  1  0.74159228  0.51825525  0.31725293  1
  Cl  Cl44  1  0.19882176  0.52597328  0.30337487  1
  Cl  Cl45  1  0.97474336  0.70666905  0.48461316  1
  Cl  Cl46  1  0.22358747  0.47998537  0.67789115  1
  Cl  Cl47  1  0.76605777  0.47309896  0.70087777  1
