# generated using pymatgen
data_SiH12AuC2(NCl3)2
_symmetry_space_group_name_H-M   'P 1'
_cell_length_a   7.54267906
_cell_length_b   10.13911118
_cell_length_c   8.12220864
_cell_angle_alpha   85.98757637
_cell_angle_beta   90.72522765
_cell_angle_gamma   90.54407114
_symmetry_Int_Tables_number   1
_chemical_formula_structural   SiH12AuC2(NCl3)2
_chemical_formula_sum   'Si2 H24 Au2 C4 N4 Cl12'
_cell_volume   619.55929747
_cell_formula_units_Z   2
loop_
 _symmetry_equiv_pos_site_id
 _symmetry_equiv_pos_as_xyz
  1  'x, y, z'
loop_
 _atom_site_type_symbol
 _atom_site_label
 _atom_site_symmetry_multiplicity
 _atom_site_fract_x
 _atom_site_fract_y
 _atom_site_fract_z
 _atom_site_occupancy
  C  C0  1  0.47866506  0.22709600  0.43204403  1
  C  C1  1  0.98265467  0.25609767  0.07400367  1
  C  C2  1  0.52493986  0.77017765  0.57180070  1
  C  C3  1  0.00001864  0.75661666  0.91877175  1
  N  N4  1  0.55710975  0.24215022  0.59797615  1
  N  N5  1  0.05908075  0.23577394  0.91021053  1
  N  N6  1  0.45803747  0.75623152  0.40162156  1
  N  N7  1  0.94978639  0.75687563  0.09496578  1
  H  H8  1  0.58573277  0.22213388  0.34354824  1
  H  H9  1  0.39924828  0.13608449  0.43571234  1
  H  H10  1  0.39450174  0.31229770  0.39844265  1
  H  H11  1  0.63392610  0.16185053  0.64017669  1
  H  H12  1  0.63618572  0.32587979  0.60077380  1
  H  H13  1  0.46084030  0.25224937  0.68545542  1
  H  H14  1  0.09107901  0.26531366  0.16311132  1
  H  H15  1  0.89814940  0.17139923  0.11121001  1
  H  H16  1  0.90417901  0.34661778  0.06427605  1
  H  H17  1  0.13736855  0.15192773  0.91204817  1
  H  H18  1  0.14017972  0.31531999  0.87126446  1
  H  H19  1  0.96372183  0.22569312  0.81934446  1
  H  H20  1  0.41210620  0.77120984  0.65448100  1
  H  H21  1  0.60966757  0.68608438  0.60835854  1
  H  H22  1  0.60046988  0.86273805  0.57453583  1
  H  H23  1  0.37212908  0.83176742  0.36198289  1
  H  H24  1  0.39105148  0.66743796  0.38729269  1
  H  H25  1  0.55905868  0.76135724  0.31688609  1
  H  H26  1  0.87969921  0.75780674  0.84278332  1
  H  H27  1  0.08183898  0.84404516  0.88707653  1
  H  H28  1  0.07668200  0.66711022  0.90233471  1
  H  H29  1  0.87221906  0.83827337  0.11738597  1
  H  H30  1  0.87749140  0.67341135  0.13444500  1
  H  H31  1  0.05973713  0.75960814  0.17180520  1
  Si  Si32  1  0.50703624  0.99982190  0.99981582  1
  Si  Si33  1  0.96187348  0.50548747  0.50755371  1
  Au  Au34  1  0.99725244  0.99411371  0.50331207  1
  Au  Au35  1  0.30921703  0.50561140  0.97033591  1
  Cl  Cl36  1  0.50505785  0.21628211  0.00804974  1
  Cl  Cl37  1  0.26859214  0.98442748  0.16772745  1
  Cl  Cl38  1  0.69243192  0.98416567  0.22117524  1
  Cl  Cl39  1  0.98760841  0.22287452  0.50932789  1
  Cl  Cl40  1  0.32316006  0.01286119  0.78143747  1
  Cl  Cl41  1  0.74370347  0.01611320  0.83203047  1
  Cl  Cl42  1  0.51514474  0.78190263  0.99468978  1
  Cl  Cl43  1  0.73574158  0.51672403  0.32819078  1
  Cl  Cl44  1  0.24643525  0.52169644  0.24365179  1
  Cl  Cl45  1  0.02851858  0.76582150  0.49713418  1
  Cl  Cl46  1  0.32415114  0.47822459  0.69314370  1
  Cl  Cl47  1  0.80654372  0.48531399  0.73659500  1
