# generated using pymatgen
data_SiH12PtC2(NCl3)2
_symmetry_space_group_name_H-M   'P 1'
_cell_length_a   8.24051367
_cell_length_b   9.50943039
_cell_length_c   8.24375797
_cell_angle_alpha   89.49558628
_cell_angle_beta   90.79592526
_cell_angle_gamma   90.65767572
_symmetry_Int_Tables_number   1
_chemical_formula_structural   SiH12PtC2(NCl3)2
_chemical_formula_sum   'Si2 H24 Pt2 C4 N4 Cl12'
_cell_volume   645.87321213
_cell_formula_units_Z   2
loop_
 _symmetry_equiv_pos_site_id
 _symmetry_equiv_pos_as_xyz
  1  'x, y, z'
loop_
 _atom_site_type_symbol
 _atom_site_label
 _atom_site_symmetry_multiplicity
 _atom_site_fract_x
 _atom_site_fract_y
 _atom_site_fract_z
 _atom_site_occupancy
  C  C0  1  0.46031133  0.28473557  0.37086889  1
  C  C1  1  0.96341933  0.22102545  0.12026817  1
  C  C2  1  0.55682288  0.70103049  0.60127232  1
  C  C3  1  0.03693620  0.80245847  0.89240907  1
  N  N4  1  0.55646775  0.25290432  0.51988874  1
  N  N5  1  0.07014349  0.22490383  0.97689539  1
  N  N6  1  0.43730753  0.76970386  0.49156071  1
  N  N7  1  0.94001817  0.74473331  0.02772032  1
  H  H8  1  0.52621480  0.24711853  0.26563495  1
  H  H9  1  0.34278698  0.23055859  0.37941464  1
  H  H10  1  0.44186090  0.39799355  0.36037100  1
  H  H11  1  0.58766424  0.14735310  0.52306601  1
  H  H12  1  0.66728097  0.30533808  0.52182399  1
  H  H13  1  0.49716426  0.27669710  0.62794600  1
  H  H14  1  0.03881732  0.22587585  0.23057439  1
  H  H15  1  0.88964884  0.12475760  0.12014570  1
  H  H16  1  0.88443498  0.31251178  0.11321119  1
  H  H17  1  0.15441965  0.14526856  0.98071966  1
  H  H18  1  0.13818029  0.31797779  0.97541025  1
  H  H19  1  0.00639547  0.21805045  0.86612128  1
  H  H20  1  0.49363892  0.65753574  0.70688129  1
  H  H21  1  0.61523229  0.61641486  0.53544375  1
  H  H22  1  0.64805836  0.77925558  0.63878580  1
  H  H23  1  0.37751367  0.85339644  0.54664471  1
  H  H24  1  0.34815781  0.69852625  0.45569221  1
  H  H25  1  0.49265921  0.80915808  0.38882845  1
  H  H26  1  0.95653201  0.82223707  0.78807256  1
  H  H27  1  0.09539218  0.90081760  0.92996547  1
  H  H28  1  0.12996133  0.72599298  0.86201750  1
  H  H29  1  0.85106568  0.81426074  0.06077214  1
  H  H30  1  0.88010296  0.65091550  0.99340478  1
  H  H31  1  0.01135243  0.72417087  0.12909652  1
  Si  Si32  1  0.45054461  0.87559942  0.94743567  1
  Si  Si33  1  0.96202545  0.60112894  0.55540804  1
  Pt  Pt34  1  0.98981530  0.00447102  0.50947818  1
  Pt  Pt35  1  0.49475667  0.50205271  0.99624473  1
  Cl  Cl36  1  0.42591735  0.29592443  0.87222311  1
  Cl  Cl37  1  0.34111770  0.99498166  0.14409576  1
  Cl  Cl38  1  0.73674876  0.98350967  0.38344894  1
  Cl  Cl39  1  0.91856714  0.21235019  0.62539278  1
  Cl  Cl40  1  0.24452827  0.02838647  0.63192215  1
  Cl  Cl41  1  0.67682498  0.99162795  0.91260184  1
  Cl  Cl42  1  0.56766534  0.70895799  0.12986336  1
  Cl  Cl43  1  0.84556400  0.49940941  0.34838384  1
  Cl  Cl44  1  0.23562080  0.51695675  0.10261791  1
  Cl  Cl45  1  0.06616704  0.79495811  0.39072837  1
  Cl  Cl46  1  0.19701359  0.50064080  0.56464563  1
  Cl  Cl47  1  0.75118448  0.48544477  0.88487847  1
