# generated using pymatgen
data_SiH12OsC2(NCl3)2
_symmetry_space_group_name_H-M   'P 1'
_cell_length_a   7.47630478
_cell_length_b   10.33165239
_cell_length_c   7.47554594
_cell_angle_alpha   94.25754169
_cell_angle_beta   89.31504888
_cell_angle_gamma   90.29022804
_symmetry_Int_Tables_number   1
_chemical_formula_structural   SiH12OsC2(NCl3)2
_chemical_formula_sum   'Si2 H24 Os2 C4 N4 Cl12'
_cell_volume   575.79080569
_cell_formula_units_Z   2
loop_
 _symmetry_equiv_pos_site_id
 _symmetry_equiv_pos_as_xyz
  1  'x, y, z'
loop_
 _atom_site_type_symbol
 _atom_site_label
 _atom_site_symmetry_multiplicity
 _atom_site_fract_x
 _atom_site_fract_y
 _atom_site_fract_z
 _atom_site_occupancy
  C  C0  1  0.45750709  0.25291911  0.46399593  1
  C  C1  1  0.95569574  0.24683780  0.03653889  1
  C  C2  1  0.56653846  0.75940292  0.59341762  1
  C  C3  1  0.06940971  0.73897818  0.90979322  1
  N  N4  1  0.59448528  0.25811598  0.60491857  1
  N  N5  1  0.09391937  0.24269602  0.89358272  1
  N  N6  1  0.39324467  0.71212398  0.52143172  1
  N  N7  1  0.89537153  0.78872557  0.97964893  1
  H  H8  1  0.52297872  0.25588776  0.33316409  1
  H  H9  1  0.38068978  0.16334551  0.47150620  1
  H  H10  1  0.36898478  0.33602533  0.48883808  1
  H  H11  1  0.68119071  0.18018305  0.59010129  1
  H  H12  1  0.67124129  0.34153305  0.60588328  1
  H  H13  1  0.53951206  0.25749751  0.73464318  1
  H  H14  1  0.02006313  0.24475671  0.16651751  1
  H  H15  1  0.86786954  0.16281609  0.01336468  1
  H  H16  1  0.87829298  0.33559293  0.02979498  1
  H  H17  1  0.17434623  0.16194987  0.89542560  1
  H  H18  1  0.17689115  0.32351998  0.90354080  1
  H  H19  1  0.03969970  0.23915179  0.76454681  1
  H  H20  1  0.54167415  0.80736119  0.72656865  1
  H  H21  1  0.65562398  0.67692976  0.60322018  1
  H  H22  1  0.62308011  0.82939045  0.50593225  1
  H  H23  1  0.30284930  0.78878580  0.53415525  1
  H  H24  1  0.34645667  0.63633111  0.59545954  1
  H  H25  1  0.40323088  0.67942331  0.38771399  1
  H  H26  1  0.04705571  0.68987425  0.77738256  1
  H  H27  1  0.16145997  0.82046031  0.89928493  1
  H  H28  1  0.12091765  0.66948843  0.99914957  1
  H  H29  1  0.85197068  0.86294133  0.90207313  1
  H  H30  1  0.80314770  0.71278701  0.97003584  1
  H  H31  1  0.90265642  0.82479680  0.11206044  1
  Si  Si32  1  0.48183004  0.97088379  0.08699477  1
  Si  Si33  1  0.97727271  0.52971923  0.40781983  1
  Os  Os34  1  0.99867936  0.99328837  0.45979481  1
  Os  Os35  1  0.49957831  0.50662541  0.03666873  1
  Cl  Cl36  1  0.50330497  0.27593494  0.00834059  1
  Cl  Cl37  1  0.19683953  0.00248678  0.20482378  1
  Cl  Cl38  1  0.72477147  0.01538478  0.27421060  1
  Cl  Cl39  1  0.00449013  0.22375914  0.49051251  1
  Cl  Cl40  1  0.24910904  0.98625663  0.64985557  1
  Cl  Cl41  1  0.80938854  0.00381687  0.71924506  1
  Cl  Cl42  1  0.47817372  0.74598728  0.09569792  1
  Cl  Cl43  1  0.69420302  0.49992557  0.28991345  1
  Cl  Cl44  1  0.22881193  0.48336187  0.22857248  1
  Cl  Cl45  1  0.98074693  0.75346511  0.40926006  1
  Cl  Cl46  1  0.31165356  0.49516347  0.78105689  1
  Cl  Cl47  1  0.75311535  0.51339013  0.84383911  1
