# generated using pymatgen
data_BaSiH12C2(NCl3)2
_symmetry_space_group_name_H-M   'P 1'
_cell_length_a   7.95495174
_cell_length_b   11.22125435
_cell_length_c   7.50980110
_cell_angle_alpha   88.03900444
_cell_angle_beta   89.99387680
_cell_angle_gamma   89.99775021
_symmetry_Int_Tables_number   1
_chemical_formula_structural   BaSiH12C2(NCl3)2
_chemical_formula_sum   'Ba2 Si2 H24 C4 N4 Cl12'
_cell_volume   669.96631985
_cell_formula_units_Z   2
loop_
 _symmetry_equiv_pos_site_id
 _symmetry_equiv_pos_as_xyz
  1  'x, y, z'
loop_
 _atom_site_type_symbol
 _atom_site_label
 _atom_site_symmetry_multiplicity
 _atom_site_fract_x
 _atom_site_fract_y
 _atom_site_fract_z
 _atom_site_occupancy
  C  C0  1  0.39823756  0.25033872  0.41435986  1
  C  C1  1  0.89886678  0.24962445  0.08628568  1
  C  C2  1  0.60175997  0.74966734  0.58565378  1
  C  C3  1  0.10113701  0.75037602  0.91372206  1
  N  N4  1  0.55506642  0.24696917  0.52056490  1
  N  N5  1  0.05526396  0.25287842  0.97933943  1
  N  N6  1  0.44493006  0.75303989  0.47945106  1
  N  N7  1  0.94473977  0.74711917  0.02066774  1
  H  H8  1  0.43106929  0.25020813  0.27288924  1
  H  H9  1  0.32723694  0.16940347  0.44762930  1
  H  H10  1  0.32612580  0.32966276  0.44556201  1
  H  H11  1  0.62367865  0.17231644  0.48620381  1
  H  H12  1  0.62738594  0.32273073  0.49242536  1
  H  H13  1  0.53015137  0.24120309  0.65732966  1
  H  H14  1  0.93228128  0.24966557  0.22758087  1
  H  H15  1  0.82645832  0.17036382  0.05534658  1
  H  H16  1  0.82788186  0.33063759  0.05349105  1
  H  H17  1  0.12761971  0.17711591  0.00727841  1
  H  H18  1  0.12407561  0.32754176  0.01332497  1
  H  H19  1  0.02986602  0.25860323  0.84269956  1
  H  H20  1  0.56892963  0.74980034  0.72712379  1
  H  H21  1  0.67386773  0.67034120  0.55445313  1
  H  H22  1  0.67276450  0.83060050  0.55238243  1
  H  H23  1  0.37632041  0.82769399  0.51381845  1
  H  H24  1  0.37261055  0.67727778  0.50759146  1
  H  H25  1  0.46984231  0.75880739  0.34268752  1
  H  H26  1  0.06772154  0.75033707  0.77242697  1
  H  H27  1  0.17354387  0.82963710  0.94466195  1
  H  H28  1  0.17212321  0.66936291  0.94651223  1
  H  H29  1  0.87238438  0.82288198  0.99272725  1
  H  H30  1  0.87593106  0.67245459  0.98667878  1
  H  H31  1  0.97013629  0.74139363  0.15730748  1
  Si  Si32  1  0.50000479  0.99999489  0.00002493  1
  Si  Si33  1  0.00000175  0.50000617  0.50000025  1
  Ba  Ba34  1  0.00000082  0.00000131  0.50000834  1
  Ba  Ba35  1  0.50000126  0.50000192  0.00000764  1
  Cl  Cl36  1  0.47399019  0.23391613  0.93478472  1
  Cl  Cl37  1  0.20560020  0.01044676  0.15866608  1
  Cl  Cl38  1  0.66225808  0.01846976  0.30730030  1
  Cl  Cl39  1  0.97355870  0.26605278  0.56551859  1
  Cl  Cl40  1  0.33772776  0.98152882  0.69269883  1
  Cl  Cl41  1  0.79442347  0.98954556  0.84135414  1
  Cl  Cl42  1  0.52600575  0.76610019  0.06522897  1
  Cl  Cl43  1  0.70562046  0.48942174  0.34123967  1
  Cl  Cl44  1  0.16229397  0.48147559  0.19267498  1
  Cl  Cl45  1  0.02643085  0.73394267  0.43449375  1
  Cl  Cl46  1  0.29439688  0.51058950  0.65877397  1
  Cl  Cl47  1  0.83770099  0.51853036  0.80734466  1
