# generated using pymatgen
data_SiSnH12C2(NCl3)2
_symmetry_space_group_name_H-M   'P 1'
_cell_length_a   8.12000941
_cell_length_b   11.16519696
_cell_length_c   7.53344848
_cell_angle_alpha   89.63492110
_cell_angle_beta   90.22651458
_cell_angle_gamma   89.88413318
_symmetry_Int_Tables_number   1
_chemical_formula_structural   SiSnH12C2(NCl3)2
_chemical_formula_sum   'Si2 Sn2 H24 C4 N4 Cl12'
_cell_volume   682.97313942
_cell_formula_units_Z   2
loop_
 _symmetry_equiv_pos_site_id
 _symmetry_equiv_pos_as_xyz
  1  'x, y, z'
loop_
 _atom_site_type_symbol
 _atom_site_label
 _atom_site_symmetry_multiplicity
 _atom_site_fract_x
 _atom_site_fract_y
 _atom_site_fract_z
 _atom_site_occupancy
  C  C0  1  0.42332501  0.25461257  0.43624150  1
  C  C1  1  0.92445019  0.24379641  0.06380153  1
  C  C2  1  0.57827542  0.75426643  0.56666875  1
  C  C3  1  0.07550595  0.74565728  0.93216355  1
  N  N4  1  0.58320864  0.24857292  0.53285854  1
  N  N5  1  0.08248545  0.24887689  0.96500753  1
  N  N6  1  0.41554130  0.75721813  0.47592470  1
  N  N7  1  0.91391773  0.74545190  0.02382537  1
  H  H8  1  0.44775528  0.25549720  0.29348072  1
  H  H9  1  0.35166056  0.17522176  0.47128905  1
  H  H10  1  0.35801543  0.33581557  0.47579714  1
  H  H11  1  0.64653236  0.17192694  0.49751291  1
  H  H12  1  0.65721412  0.32127444  0.50114205  1
  H  H13  1  0.56530768  0.24767960  0.67023324  1
  H  H14  1  0.95171215  0.24272696  0.20615928  1
  H  H15  1  0.85808048  0.16295026  0.02501854  1
  H  H16  1  0.85244940  0.32361299  0.02983816  1
  H  H17  1  0.15760185  0.17653502  0.99711888  1
  H  H18  1  0.14629767  0.32565571  0.99770589  1
  H  H19  1  0.06240227  0.24865907  0.82764010  1
  H  H20  1  0.55738299  0.75588075  0.70994982  1
  H  H21  1  0.64305377  0.67222334  0.53011132  1
  H  H22  1  0.64829286  0.83331199  0.52658773  1
  H  H23  1  0.34962297  0.83221676  0.51758603  1
  H  H24  1  0.34882032  0.68130180  0.51039841  1
  H  H25  1  0.42862627  0.76141355  0.33859097  1
  H  H26  1  0.05265810  0.74291719  0.78906278  1
  H  H27  1  0.14234409  0.82723518  0.96648449  1
  H  H28  1  0.14458212  0.66605489  0.97333947  1
  H  H29  1  0.84767175  0.82148839  0.98757587  1
  H  H30  1  0.84648033  0.67050805  0.98472247  1
  H  H31  1  0.92828880  0.74275263  0.16122304  1
  Si  Si32  1  0.49969344  0.99331696  0.03701437  1
  Si  Si33  1  0.99430188  0.50790478  0.46645144  1
  Sn  Sn34  1  0.00533089  0.00119975  0.51830159  1
  Sn  Sn35  1  0.49860141  0.49934273  0.98229899  1
  Cl  Cl36  1  0.49111137  0.26960855  0.94459908  1
  Cl  Cl37  1  0.25438469  0.01444029  0.17519968  1
  Cl  Cl38  1  0.66056145  0.01564353  0.28199917  1
  Cl  Cl39  1  0.99394216  0.23139285  0.55328001  1
  Cl  Cl40  1  0.27918016  0.98473710  0.68588526  1
  Cl  Cl41  1  0.82796173  0.98182156  0.79650917  1
  Cl  Cl42  1  0.50396519  0.78687090  0.06042847  1
  Cl  Cl43  1  0.74696690  0.48610379  0.33003458  1
  Cl  Cl44  1  0.15141594  0.48338131  0.22185501  1
  Cl  Cl45  1  0.00065709  0.71471590  0.44015772  1
  Cl  Cl46  1  0.32787620  0.52054716  0.69779871  1
  Cl  Cl47  1  0.77450991  0.51573855  0.82342354  1
