# generated using pymatgen
data_SrH12C3(I3N)2
_symmetry_space_group_name_H-M   'P 1'
_cell_length_a   8.17368196
_cell_length_b   12.15956070
_cell_length_c   8.51046187
_cell_angle_alpha   91.06575957
_cell_angle_beta   89.99802628
_cell_angle_gamma   90.00144073
_symmetry_Int_Tables_number   1
_chemical_formula_structural   SrH12C3(I3N)2
_chemical_formula_sum   'Sr2 H24 C6 I12 N4'
_cell_volume   845.69470797
_cell_formula_units_Z   2
loop_
 _symmetry_equiv_pos_site_id
 _symmetry_equiv_pos_as_xyz
  1  'x, y, z'
loop_
 _atom_site_type_symbol
 _atom_site_label
 _atom_site_symmetry_multiplicity
 _atom_site_fract_x
 _atom_site_fract_y
 _atom_site_fract_z
 _atom_site_occupancy
  C  C0  1  0.44043115  0.23771652  0.40396120  1
  C  C1  1  0.94440804  0.25525194  0.09630107  1
  C  C2  1  0.55564121  0.75525641  0.59622792  1
  C  C3  1  0.05965593  0.73772416  0.90390424  1
  N  N4  1  0.54009795  0.26105716  0.54637725  1
  N  N5  1  0.03454625  0.24176416  0.94555512  1
  N  N6  1  0.46523006  0.74190823  0.44561779  1
  N  N7  1  0.96007011  0.76103242  0.04638761  1
  H  H8  1  0.52466092  0.22650943  0.30495848  1
  H  H9  1  0.36721777  0.16386825  0.42348097  1
  H  H10  1  0.36146468  0.30865249  0.38187123  1
  H  H11  1  0.62944783  0.20188984  0.56282319  1
  H  H12  1  0.59998449  0.33626988  0.53240510  1
  H  H13  1  0.46974085  0.26463508  0.64784230  1
  H  H14  1  0.03314151  0.26609062  0.19151481  1
  H  H15  1  0.87138850  0.18112639  0.11492048  1
  H  H16  1  0.86628307  0.32817051  0.09045519  1
  H  H17  1  0.09912992  0.16835424  0.94030475  1
  H  H18  1  0.11782170  0.30482341  0.93077267  1
  H  H19  1  0.95994145  0.23954960  0.84591324  1
  H  H20  1  0.46707442  0.76575771  0.69166266  1
  H  H21  1  0.62897335  0.68121396  0.61440186  1
  H  H22  1  0.63347953  0.82832221  0.59052566  1
  H  H23  1  0.38146645  0.80474377  0.43140730  1
  H  H24  1  0.40115794  0.66829235  0.44009456  1
  H  H25  1  0.53959203  0.74020513  0.34578044  1
  H  H26  1  0.97534350  0.72627717  0.80502062  1
  H  H27  1  0.13833304  0.80876803  0.88158638  1
  H  H28  1  0.13315267  0.66401357  0.92348739  1
  H  H29  1  0.89978755  0.83608646  0.03229929  1
  H  H30  1  0.87108938  0.70166459  0.06314530  1
  H  H31  1  0.03056598  0.76492444  0.14774116  1
  C  C32  1  0.99447950  0.97512139  0.43270215  1
  C  C33  1  0.50546077  0.47510490  0.93266250  1
  Sr  Sr34  1  0.51764561  0.99660482  0.00652867  1
  Sr  Sr35  1  0.98231781  0.49658008  0.50650387  1
  I  I36  1  0.47799871  0.28526146  0.96265041  1
  I  I37  1  0.16149624  0.00811005  0.21669069  1
  I  I38  1  0.72600286  0.99806232  0.35295319  1
  I  I39  1  0.98645950  0.24348942  0.54275578  1
  I  I40  1  0.31413963  0.01422478  0.69959120  1
  I  I41  1  0.84204272  0.99313953  0.82691702  1
  I  I42  1  0.51359997  0.74352580  0.04281766  1
  I  I43  1  0.65788350  0.49322017  0.32695523  1
  I  I44  1  0.18580608  0.51430356  0.19955867  1
  I  I45  1  0.02187849  0.78527900  0.46266218  1
  I  I46  1  0.33851828  0.50809702  0.71664969  1
  I  I47  1  0.77397483  0.49803386  0.85295049  1
