# generated using pymatgen
data_CdSiH12C2(NCl3)2
_symmetry_space_group_name_H-M   'P 1'
_cell_length_a   8.12603454
_cell_length_b   10.03573047
_cell_length_c   7.92793711
_cell_angle_alpha   89.53464377
_cell_angle_beta   90.63501441
_cell_angle_gamma   91.73612656
_symmetry_Int_Tables_number   1
_chemical_formula_structural   CdSiH12C2(NCl3)2
_chemical_formula_sum   'Cd2 Si2 H24 C4 N4 Cl12'
_cell_volume   646.17267800
_cell_formula_units_Z   2
loop_
 _symmetry_equiv_pos_site_id
 _symmetry_equiv_pos_as_xyz
  1  'x, y, z'
loop_
 _atom_site_type_symbol
 _atom_site_label
 _atom_site_symmetry_multiplicity
 _atom_site_fract_x
 _atom_site_fract_y
 _atom_site_fract_z
 _atom_site_occupancy
  C  C0  1  0.44851835  0.24897460  0.41855536  1
  C  C1  1  0.93872721  0.25116843  0.08506786  1
  C  C2  1  0.55009004  0.73788774  0.56856030  1
  C  C3  1  0.02836992  0.74755182  0.93400046  1
  N  N4  1  0.58227823  0.25312218  0.54755443  1
  N  N5  1  0.06458747  0.24820030  0.95081947  1
  N  N6  1  0.44690003  0.74411743  0.41309722  1
  N  N7  1  0.92367832  0.75821479  0.08562762  1
  H  H8  1  0.50378981  0.23825127  0.29446422  1
  H  H9  1  0.36636417  0.16344252  0.44519324  1
  H  H10  1  0.38035056  0.34102392  0.42481065  1
  H  H11  1  0.64686486  0.16591773  0.54485348  1
  H  H12  1  0.66442653  0.33179669  0.52530410  1
  H  H13  1  0.53812884  0.26415579  0.67007326  1
  H  H14  1  0.00229590  0.25287432  0.20719746  1
  H  H15  1  0.85858247  0.16220033  0.07440270  1
  H  H16  1  0.86735718  0.34100437  0.06943611  1
  H  H17  1  0.13832680  0.16660274  0.96803487  1
  H  H18  1  0.14083874  0.33249096  0.95432991  1
  H  H19  1  0.01275682  0.24157512  0.83103796  1
  H  H20  1  0.47003465  0.71616283  0.67547878  1
  H  H21  1  0.63965483  0.65973082  0.55400746  1
  H  H22  1  0.61245267  0.83484453  0.58632839  1
  H  H23  1  0.35455875  0.81241831  0.42431219  1
  H  H24  1  0.38578757  0.65401077  0.38821437  1
  H  H25  1  0.51542651  0.76970341  0.30756006  1
  H  H26  1  0.94883579  0.73457972  0.82314179  1
  H  H27  1  0.10330789  0.83913937  0.92127997  1
  H  H28  1  0.10709068  0.66199327  0.95053556  1
  H  H29  1  0.84247392  0.83513264  0.07226840  1
  H  H30  1  0.85398188  0.67163634  0.10949515  1
  H  H31  1  0.99300128  0.77527326  0.19531209  1
  Si  Si32  1  0.46590440  0.00454484  0.98246872  1
  Si  Si33  1  0.01406551  0.48275997  0.53855474  1
  Cd  Cd34  1  0.93136760  0.99039153  0.52977913  1
  Cd  Cd35  1  0.47936172  0.50455015  0.06474778  1
  Cl  Cl36  1  0.48482750  0.28257182  0.93220822  1
  Cl  Cl37  1  0.24472552  0.00580981  0.15221975  1
  Cl  Cl38  1  0.70711623  0.99852353  0.31404524  1
  Cl  Cl39  1  0.03689755  0.23648527  0.53039166  1
  Cl  Cl40  1  0.32616246  0.99696070  0.74198511  1
  Cl  Cl41  1  0.80229084  0.00899384  0.80656070  1
  Cl  Cl42  1  0.51509702  0.75236027  0.99838697  1
  Cl  Cl43  1  0.70954491  0.51117898  0.27549017  1
  Cl  Cl44  1  0.20883768  0.50656790  0.20379803  1
  Cl  Cl45  1  0.06774583  0.78336693  0.46735358  1
  Cl  Cl46  1  0.24270606  0.50373360  0.69117264  1
  Cl  Cl47  1  0.83353421  0.47608080  0.75077925  1
