# generated using pymatgen
data_SiAgH12C2(NCl3)2
_symmetry_space_group_name_H-M   'P 1'
_cell_length_a   7.96846377
_cell_length_b   10.28995930
_cell_length_c   7.42872913
_cell_angle_alpha   88.01555259
_cell_angle_beta   92.84139297
_cell_angle_gamma   90.33435853
_symmetry_Int_Tables_number   1
_chemical_formula_structural   SiAgH12C2(NCl3)2
_chemical_formula_sum   'Si2 Ag2 H24 C4 N4 Cl12'
_cell_volume   608.00099193
_cell_formula_units_Z   2
loop_
 _symmetry_equiv_pos_site_id
 _symmetry_equiv_pos_as_xyz
  1  'x, y, z'
loop_
 _atom_site_type_symbol
 _atom_site_label
 _atom_site_symmetry_multiplicity
 _atom_site_fract_x
 _atom_site_fract_y
 _atom_site_fract_z
 _atom_site_occupancy
  C  C0  1  0.42319506  0.25438581  0.44537097  1
  C  C1  1  0.94611056  0.24347752  0.06842954  1
  C  C2  1  0.57892838  0.75042730  0.56363784  1
  C  C3  1  0.06081522  0.75425998  0.92705139  1
  N  N4  1  0.58724022  0.26094046  0.54809232  1
  N  N5  1  0.09025894  0.26780307  0.95319126  1
  N  N6  1  0.41193941  0.73761772  0.46847809  1
  N  N7  1  0.90646652  0.73252064  0.02691053  1
  H  H8  1  0.44471925  0.26588268  0.30152823  1
  H  H9  1  0.36598230  0.15969594  0.47361275  1
  H  H10  1  0.34345863  0.33193836  0.48938185  1
  H  H11  1  0.66979285  0.19154232  0.50902232  1
  H  H12  1  0.64541167  0.35011064  0.52736491  1
  H  H13  1  0.57279078  0.24731788  0.68599083  1
  H  H14  1  0.99029823  0.24438155  0.20981385  1
  H  H15  1  0.89078419  0.14917383  0.03708286  1
  H  H16  1  0.85375195  0.32027673  0.03929486  1
  H  H17  1  0.18660602  0.20308294  0.98693920  1
  H  H18  1  0.13814351  0.36083173  0.96539373  1
  H  H19  1  0.05614951  0.25761374  0.81667703  1
  H  H20  1  0.56120211  0.74703036  0.70846805  1
  H  H21  1  0.65764856  0.66980965  0.52803268  1
  H  H22  1  0.63482845  0.84314394  0.52268443  1
  H  H23  1  0.33256989  0.81120585  0.50083090  1
  H  H24  1  0.35497824  0.65072211  0.50872906  1
  H  H25  1  0.42162581  0.74198126  0.32927645  1
  H  H26  1  0.02719448  0.75323894  0.78277718  1
  H  H27  1  0.11643292  0.84746057  0.96324764  1
  H  H28  1  0.14882529  0.67538882  0.96183695  1
  H  H29  1  0.81938153  0.80472097  0.99237946  1
  H  H30  1  0.85294968  0.64362545  0.99166494  1
  H  H31  1  0.93092775  0.73390916  0.16563359  1
  Si  Si32  1  0.49835380  0.99882874  0.00484950  1
  Si  Si33  1  0.98943212  0.50497626  0.46789511  1
  Ag  Ag34  1  0.99645256  0.99839814  0.49358924  1
  Ag  Ag35  1  0.52652024  0.50453526  0.95745464  1
  Cl  Cl36  1  0.50083335  0.21696423  0.96456320  1
  Cl  Cl37  1  0.26991271  0.01142454  0.16636046  1
  Cl  Cl38  1  0.66264802  0.01562801  0.25473420  1
  Cl  Cl39  1  0.98858813  0.22788680  0.54358659  1
  Cl  Cl40  1  0.33605889  0.98335091  0.75259472  1
  Cl  Cl41  1  0.72668363  0.98705619  0.84090765  1
  Cl  Cl42  1  0.49629285  0.77930377  0.04821904  1
  Cl  Cl43  1  0.73643722  0.49681778  0.29318932  1
  Cl  Cl44  1  0.16597965  0.50167999  0.24163212  1
  Cl  Cl45  1  0.00414799  0.76744858  0.44471806  1
  Cl  Cl46  1  0.28385871  0.50524394  0.73202831  1
  Cl  Cl47  1  0.79641596  0.49501725  0.79514875  1
