# generated using pymatgen
data_SiH12RuC2(NCl3)2
_symmetry_space_group_name_H-M   'P 1'
_cell_length_a   7.41930894
_cell_length_b   10.24023712
_cell_length_c   7.56042782
_cell_angle_alpha   93.09768335
_cell_angle_beta   90.55376658
_cell_angle_gamma   89.84488996
_symmetry_Int_Tables_number   1
_chemical_formula_structural   SiH12RuC2(NCl3)2
_chemical_formula_sum   'Si2 H24 Ru2 C4 N4 Cl12'
_cell_volume   573.53970028
_cell_formula_units_Z   2
loop_
 _symmetry_equiv_pos_site_id
 _symmetry_equiv_pos_as_xyz
  1  'x, y, z'
loop_
 _atom_site_type_symbol
 _atom_site_label
 _atom_site_symmetry_multiplicity
 _atom_site_fract_x
 _atom_site_fract_y
 _atom_site_fract_z
 _atom_site_occupancy
  C  C0  1  0.45573760  0.26291943  0.45854603  1
  C  C1  1  0.95684008  0.23695509  0.04108241  1
  C  C2  1  0.57364292  0.75212852  0.59988838  1
  C  C3  1  0.06902682  0.74842772  0.89808752  1
  N  N4  1  0.58405783  0.25489387  0.60803644  1
  N  N5  1  0.08379177  0.24472318  0.89288611  1
  N  N6  1  0.39621770  0.71869389  0.51971368  1
  N  N7  1  0.89457458  0.78158625  0.98188983  1
  H  H8  1  0.53001987  0.26215201  0.33483431  1
  H  H9  1  0.36539617  0.17914141  0.45863875  1
  H  H10  1  0.37783879  0.35304939  0.47697824  1
  H  H11  1  0.65837204  0.16873991  0.60173873  1
  H  H12  1  0.67516990  0.33114617  0.61332471  1
  H  H13  1  0.52150842  0.25895770  0.73159228  1
  H  H14  1  0.03238348  0.23643314  0.16537284  1
  H  H15  1  0.87805200  0.14752404  0.02101361  1
  H  H16  1  0.86723365  0.32147474  0.04088723  1
  H  H17  1  0.17273885  0.16680730  0.88617529  1
  H  H18  1  0.16044031  0.32938123  0.90215760  1
  H  H19  1  0.02015023  0.24335753  0.76876000  1
  H  H20  1  0.55161536  0.78455340  0.73824064  1
  H  H21  1  0.65929209  0.66523537  0.59367914  1
  H  H22  1  0.63323121  0.83104744  0.52919133  1
  H  H23  1  0.31085077  0.79900991  0.54032054  1
  H  H24  1  0.34345519  0.63885190  0.58204007  1
  H  H25  1  0.40506582  0.69805516  0.38439829  1
  H  H26  1  0.04188578  0.71638729  0.76005560  1
  H  H27  1  0.15403783  0.83538202  0.90300443  1
  H  H28  1  0.13208327  0.66933156  0.96728770  1
  H  H29  1  0.83942173  0.86197109  0.92166949  1
  H  H30  1  0.80904817  0.70141982  0.96160832  1
  H  H31  1  0.90844776  0.80118100  0.11726878  1
  Si  Si32  1  0.48298801  0.97429263  0.07338710  1
  Si  Si33  1  0.98672465  0.52377916  0.42525001  1
  Ru  Ru34  1  0.01248056  0.99954849  0.46926859  1
  Ru  Ru35  1  0.51145209  0.50044720  0.03118037  1
  Cl  Cl36  1  0.50054989  0.26813885  0.00944749  1
  Cl  Cl37  1  0.21272638  0.00470683  0.20589760  1
  Cl  Cl38  1  0.69304454  0.01003026  0.28373034  1
  Cl  Cl39  1  0.00017224  0.23215587  0.49059274  1
  Cl  Cl40  1  0.26471645  0.99607658  0.65880079  1
  Cl  Cl41  1  0.82019541  0.00544519  0.71955930  1
  Cl  Cl42  1  0.48442590  0.74253312  0.10050582  1
  Cl  Cl43  1  0.71309441  0.49375374  0.29468804  1
  Cl  Cl44  1  0.19241507  0.49102645  0.21382760  1
  Cl  Cl45  1  0.98509465  0.75731365  0.40055356  1
  Cl  Cl46  1  0.31661765  0.49525442  0.77885640  1
  Cl  Cl47  1  0.76169787  0.50465738  0.84438255  1
