# generated using pymatgen
data_SrSiH12C2(NCl3)2
_symmetry_space_group_name_H-M   'P 1'
_cell_length_a   7.76732273
_cell_length_b   10.98103119
_cell_length_c   7.47096629
_cell_angle_alpha   88.96952419
_cell_angle_beta   90.00262553
_cell_angle_gamma   90.00470957
_symmetry_Int_Tables_number   1
_chemical_formula_structural   SrSiH12C2(NCl3)2
_chemical_formula_sum   'Sr2 Si2 H24 C4 N4 Cl12'
_cell_volume   637.11965897
_cell_formula_units_Z   2
loop_
 _symmetry_equiv_pos_site_id
 _symmetry_equiv_pos_as_xyz
  1  'x, y, z'
loop_
 _atom_site_type_symbol
 _atom_site_label
 _atom_site_symmetry_multiplicity
 _atom_site_fract_x
 _atom_site_fract_y
 _atom_site_fract_z
 _atom_site_occupancy
  C  C0  1  0.39394133  0.25059495  0.41204514  1
  C  C1  1  0.89494196  0.24952845  0.08890997  1
  C  C2  1  0.60605554  0.74941107  0.58796837  1
  C  C3  1  0.10506277  0.75047214  0.91110073  1
  N  N4  1  0.55029750  0.24933347  0.52485035  1
  N  N5  1  0.05066550  0.25065774  0.97519296  1
  N  N6  1  0.44969885  0.75067294  0.47516435  1
  N  N7  1  0.94933967  0.74933964  0.02481805  1
  H  H8  1  0.43259074  0.25033104  0.27135608  1
  H  H9  1  0.32061023  0.16812651  0.44206971  1
  H  H10  1  0.31844207  0.33151975  0.44094987  1
  H  H11  1  0.62273124  0.17280552  0.49581567  1
  H  H12  1  0.62475311  0.32601697  0.49706982  1
  H  H13  1  0.52043508  0.24681297  0.66127256  1
  H  H14  1  0.93439323  0.24981019  0.22934161  1
  H  H15  1  0.81910505  0.16866142  0.06051893  1
  H  H16  1  0.82159541  0.33207637  0.05933631  1
  H  H17  1  0.12514102  0.17391386  0.00269020  1
  H  H18  1  0.12336263  0.32713334  0.00378084  1
  H  H19  1  0.02013784  0.25312832  0.83895562  1
  H  H20  1  0.56740726  0.74967776  0.72865699  1
  H  H21  1  0.68155256  0.66848468  0.55906623  1
  H  H22  1  0.67938884  0.83187827  0.55794075  1
  H  H23  1  0.37726567  0.82720124  0.50420169  1
  H  H24  1  0.37524413  0.67398838  0.50294741  1
  H  H25  1  0.47955963  0.75319396  0.33874324  1
  H  H26  1  0.06561015  0.75019225  0.77066928  1
  H  H27  1  0.18089867  0.83133920  0.93949349  1
  H  H28  1  0.17840986  0.66792395  0.94066956  1
  H  H29  1  0.87486310  0.82608301  0.99732162  1
  H  H30  1  0.87664567  0.67286261  0.99622809  1
  H  H31  1  0.97986772  0.74686870  0.16105546  1
  Si  Si32  1  0.50000460  0.99999764  0.00001692  1
  Si  Si33  1  0.99999722  0.50000519  0.49999338  1
  Sr  Sr34  1  0.00000218  0.00000168  0.50000995  1
  Sr  Sr35  1  0.49999954  0.50000418  1.00000023  1
  Cl  Cl36  1  0.47295873  0.24091707  0.94095332  1
  Cl  Cl37  1  0.20194116  0.00917056  0.17366635  1
  Cl  Cl38  1  0.67566298  0.01309322  0.30783233  1
  Cl  Cl39  1  0.97240030  0.25908953  0.55952744  1
  Cl  Cl40  1  0.32433526  0.98690905  0.69217966  1
  Cl  Cl41  1  0.79807078  0.99082467  0.82635291  1
  Cl  Cl42  1  0.52704071  0.75909986  0.05906077  1
  Cl  Cl43  1  0.70196748  0.49069422  0.32625314  1
  Cl  Cl44  1  0.17575593  0.48699366  0.19223981  1
  Cl  Cl45  1  0.02759250  0.74090764  0.44048493  1
  Cl  Cl46  1  0.29804304  0.50931613  0.67375134  1
  Cl  Cl47  1  0.82423726  0.51301328  0.80777317  1
