# generated using pymatgen
data_SiGeH12C2(NCl3)2
_symmetry_space_group_name_H-M   'P 1'
_cell_length_a   8.10818908
_cell_length_b   10.89766706
_cell_length_c   7.45869514
_cell_angle_alpha   89.32356263
_cell_angle_beta   89.72449091
_cell_angle_gamma   89.72184846
_symmetry_Int_Tables_number   1
_chemical_formula_structural   SiGeH12C2(NCl3)2
_chemical_formula_sum   'Si2 Ge2 H24 C4 N4 Cl12'
_cell_volume   658.99174151
_cell_formula_units_Z   2
loop_
 _symmetry_equiv_pos_site_id
 _symmetry_equiv_pos_as_xyz
  1  'x, y, z'
loop_
 _atom_site_type_symbol
 _atom_site_label
 _atom_site_symmetry_multiplicity
 _atom_site_fract_x
 _atom_site_fract_y
 _atom_site_fract_z
 _atom_site_occupancy
  C  C0  1  0.43850922  0.25311510  0.44626134  1
  C  C1  1  0.93808518  0.24854738  0.05050528  1
  C  C2  1  0.56179087  0.75263195  0.55161320  1
  C  C3  1  0.05540424  0.74704758  0.94045617  1
  N  N4  1  0.59950643  0.24957751  0.54065220  1
  N  N5  1  0.09771776  0.25066794  0.95185284  1
  N  N6  1  0.39699897  0.75235838  0.46500710  1
  N  N7  1  0.89241631  0.74842121  0.03213349  1
  H  H8  1  0.46173560  0.25224646  0.30167940  1
  H  H9  1  0.36731456  0.17234159  0.48620724  1
  H  H10  1  0.37212124  0.33660748  0.48369126  1
  H  H11  1  0.66604866  0.17180254  0.50519213  1
  H  H12  1  0.67042575  0.32508546  0.50498028  1
  H  H13  1  0.58297208  0.24989662  0.67951942  1
  H  H14  1  0.96340547  0.24849702  0.19430707  1
  H  H15  1  0.87143290  0.16551458  0.01458583  1
  H  H16  1  0.86710013  0.33018425  0.01257905  1
  H  H17  1  0.17157189  0.17744316  0.99148524  1
  H  H18  1  0.16227202  0.32995176  0.97690402  1
  H  H19  1  0.07935771  0.24506935  0.81332533  1
  H  H20  1  0.54367471  0.75074055  0.69684696  1
  H  H21  1  0.62949749  0.67078805  0.50986241  1
  H  H22  1  0.62719116  0.83586049  0.51056380  1
  H  H23  1  0.32759913  0.82705521  0.50521814  1
  H  H24  1  0.33268216  0.67407309  0.50162478  1
  H  H25  1  0.40790311  0.75628462  0.32558335  1
  H  H26  1  0.03480760  0.74707961  0.79567183  1
  H  H27  1  0.12384098  0.82872371  0.97848786  1
  H  H28  1  0.12213497  0.66393698  0.98096408  1
  H  H29  1  0.82748410  0.82715887  0.99702167  1
  H  H30  1  0.82334593  0.67322491  0.99259511  1
  H  H31  1  0.90588607  0.74510638  0.17087708  1
  Si  Si32  1  0.47196493  0.98778791  0.00576429  1
  Si  Si33  1  0.99297952  0.50795300  0.46666000  1
  Ge  Ge34  1  0.98333722  0.00265799  0.52338792  1
  Ge  Ge35  1  0.50060613  0.49391017  0.97749259  1
  Cl  Cl36  1  0.50524331  0.27372555  0.95676532  1
  Cl  Cl37  1  0.24668505  0.01185242  0.18119554  1
  Cl  Cl38  1  0.75744095  0.01542046  0.32343137  1
  Cl  Cl39  1  0.00735024  0.22206925  0.54311479  1
  Cl  Cl40  1  0.33115402  0.98596302  0.74692399  1
  Cl  Cl41  1  0.81257948  0.98783277  0.78082653  1
  Cl  Cl42  1  0.48414012  0.77813770  0.04641903  1
  Cl  Cl43  1  0.75554732  0.48614195  0.31522213  1
  Cl  Cl44  1  0.16731487  0.48707365  0.23401797  1
  Cl  Cl45  1  0.99268069  0.71857169  0.44674365  1
  Cl  Cl46  1  0.31890869  0.51485575  0.72994911  1
  Cl  Cl47  1  0.74985680  0.51908521  0.81412740  1
