# generated using pymatgen
data_GaSiH12C2(NCl3)2
_symmetry_space_group_name_H-M   'P 1'
_cell_length_a   7.93580238
_cell_length_b   10.93686429
_cell_length_c   7.46345811
_cell_angle_alpha   87.13384991
_cell_angle_beta   90.30533985
_cell_angle_gamma   89.65176900
_symmetry_Int_Tables_number   1
_chemical_formula_structural   GaSiH12C2(NCl3)2
_chemical_formula_sum   'Ga2 Si2 H24 C4 N4 Cl12'
_cell_volume   646.94182168
_cell_formula_units_Z   2
loop_
 _symmetry_equiv_pos_site_id
 _symmetry_equiv_pos_as_xyz
  1  'x, y, z'
loop_
 _atom_site_type_symbol
 _atom_site_label
 _atom_site_symmetry_multiplicity
 _atom_site_fract_x
 _atom_site_fract_y
 _atom_site_fract_z
 _atom_site_occupancy
  C  C0  1  0.41408389  0.25665454  0.43215427  1
  C  C1  1  0.93125182  0.24825899  0.07493504  1
  C  C2  1  0.58577146  0.74855119  0.56718179  1
  C  C3  1  0.07102167  0.75069982  0.92028105  1
  N  N4  1  0.57814682  0.26776472  0.52635862  1
  N  N5  1  0.08314212  0.27947382  0.96695513  1
  N  N6  1  0.42026585  0.73561196  0.47666892  1
  N  N7  1  0.91531959  0.72273658  0.02305367  1
  H  H8  1  0.43655465  0.26116582  0.28751975  1
  H  H9  1  0.35882613  0.16844511  0.47307833  1
  H  H10  1  0.33240861  0.33182587  0.46969049  1
  H  H11  1  0.66206623  0.20060065  0.49179405  1
  H  H12  1  0.63524175  0.35135466  0.49283606  1
  H  H13  1  0.56382448  0.25955960  0.66477606  1
  H  H14  1  0.96649033  0.24332959  0.21701378  1
  H  H15  1  0.88147146  0.16077918  0.03446669  1
  H  H16  1  0.83788424  0.32104198  0.04960943  1
  H  H17  1  0.17783188  0.21500049  0.99052340  1
  H  H18  1  0.12901771  0.36392769  0.00117140  1
  H  H19  1  0.05558673  0.28279091  0.83016374  1
  H  H20  1  0.56473208  0.74797941  0.71180307  1
  H  H21  1  0.66495400  0.67088182  0.53492172  1
  H  H22  1  0.64301978  0.83480644  0.52032951  1
  H  H23  1  0.33785837  0.80381847  0.51021707  1
  H  H24  1  0.36672774  0.65178046  0.51975108  1
  H  H25  1  0.43204136  0.74052175  0.33789757  1
  H  H26  1  0.03921518  0.75700843  0.77728791  1
  H  H27  1  0.12379268  0.83670602  0.96290273  1
  H  H28  1  0.16135061  0.67588803  0.94601304  1
  H  H29  1  0.82579638  0.79108589  -0.00005975  1
  H  H30  1  0.86369273  0.64039567  0.98258522  1
  H  H31  1  0.93985759  0.71544051  0.16045091  1
  Si  Si32  1  0.49905887  0.99924808  0.00294483  1
  Si  Si33  1  0.99773762  0.51126222  0.47068567  1
  Ga  Ga34  1  0.00588041  0.00960187  0.51966762  1
  Ga  Ga35  1  0.50609969  0.49965980  0.98319747  1
  Cl  Cl36  1  0.50214081  0.20348196  0.95044208  1
  Cl  Cl37  1  0.25533191  0.01611511  0.14992335  1
  Cl  Cl38  1  0.64423712  0.01771468  0.25746019  1
  Cl  Cl39  1  0.97890552  0.22571923  0.56395747  1
  Cl  Cl40  1  0.35558674  0.98164057  0.74356649  1
  Cl  Cl41  1  0.74235328  0.98152639  0.85259372  1
  Cl  Cl42  1  0.49523159  0.79459702  0.05219622  1
  Cl  Cl43  1  0.74696621  0.50114107  0.31799252  1
  Cl  Cl44  1  0.16359021  0.49813923  0.22229661  1
  Cl  Cl45  1  0.00705296  0.72261923  0.44173756  1
  Cl  Cl46  1  0.32185882  0.50048098  0.70566569  1
  Cl  Cl47  1  0.77874604  0.50124475  0.81163733  1
