# generated using pymatgen
data_ZnSiH12C2(NCl3)2
_symmetry_space_group_name_H-M   'P 1'
_cell_length_a   7.73290759
_cell_length_b   11.20636871
_cell_length_c   7.63492790
_cell_angle_alpha   90.65501009
_cell_angle_beta   90.21115634
_cell_angle_gamma   89.96139234
_symmetry_Int_Tables_number   1
_chemical_formula_structural   ZnSiH12C2(NCl3)2
_chemical_formula_sum   'Zn2 Si2 H24 C4 N4 Cl12'
_cell_volume   661.57830025
_cell_formula_units_Z   2
loop_
 _symmetry_equiv_pos_site_id
 _symmetry_equiv_pos_as_xyz
  1  'x, y, z'
loop_
 _atom_site_type_symbol
 _atom_site_label
 _atom_site_symmetry_multiplicity
 _atom_site_fract_x
 _atom_site_fract_y
 _atom_site_fract_z
 _atom_site_occupancy
  C  C0  1  0.38953275  0.23796605  0.37324632  1
  C  C1  1  0.92055965  0.26203287  0.12128499  1
  C  C2  1  0.57989026  0.76209462  0.61955392  1
  C  C3  1  0.10978927  0.73846879  0.87201028  1
  N  N4  1  0.53602811  0.24079232  0.49915006  1
  N  N5  1  0.07691213  0.26637361  0.00971756  1
  N  N6  1  0.42360398  0.76688072  0.50675669  1
  N  N7  1  0.96443989  0.74067932  0.99819785  1
  H  H8  1  0.44115276  0.24209990  0.24010684  1
  H  H9  1  0.31702847  0.15532978  0.39114090  1
  H  H10  1  0.30793897  0.31583566  0.39964041  1
  H  H11  1  0.62132483  0.17081036  0.47631391  1
  H  H12  1  0.60448379  0.31993263  0.48698850  1
  H  H13  1  0.49622460  0.23538676  0.63017656  1
  H  H14  1  0.96117541  0.25764089  0.25844308  1
  H  H15  1  0.84695510  0.18218311  0.08572248  1
  H  H16  1  0.84283207  0.34196097  0.09934618  1
  H  H17  1  0.14910891  0.18879210  0.02482347  1
  H  H18  1  0.15432655  0.33995552  0.04258032  1
  H  H19  1  0.04437867  0.27257006  0.87770683  1
  H  H20  1  0.53910908  0.75763664  0.75634675  1
  H  H21  1  0.65335844  0.68214368  0.58440555  1
  H  H22  1  0.65776254  0.84191373  0.59844549  1
  H  H23  1  0.34634160  0.84050161  0.53958998  1
  H  H24  1  0.35116008  0.68948192  0.52111976  1
  H  H25  1  0.45616811  0.77325283  0.37501653  1
  H  H26  1  0.05698152  0.74299786  0.73900913  1
  H  H27  1  0.19128476  0.81633395  0.89875175  1
  H  H28  1  0.18282080  0.65584038  0.88908300  1
  H  H29  1  0.89546887  0.81977197  0.98660435  1
  H  H30  1  0.87926835  0.67064935  0.97519883  1
  H  H31  1  0.00523854  0.73505064  0.12914521  1
  Si  Si32  1  0.57184402  0.98855331  0.09158500  1
  Si  Si33  1  0.92771482  0.48853652  0.59418763  1
  Zn  Zn34  1  0.04521710  0.94542075  0.38914222  1
  Zn  Zn35  1  0.45373271  0.44582633  0.88847888  1
  Cl  Cl36  1  0.47938230  0.24358934  0.90039836  1
  Cl  Cl37  1  0.16041832  0.00021470  0.13199792  1
  Cl  Cl38  1  0.75363046  0.00973708  0.36579333  1
  Cl  Cl39  1  0.95121962  0.29157257  0.60953089  1
  Cl  Cl40  1  0.20519754  0.00210792  0.62209006  1
  Cl  Cl41  1  0.77053026  0.98688555  0.88762252  1
  Cl  Cl42  1  0.54951033  0.79157117  0.10721285  1
  Cl  Cl43  1  0.72944314  0.48646275  0.38836930  1
  Cl  Cl44  1  0.29492983  0.50259373  0.12115581  1
  Cl  Cl45  1  0.01947510  0.74317608  0.40005344  1
  Cl  Cl46  1  0.33955010  0.50102999  0.63017860  1
  Cl  Cl47  1  0.74557921  0.50943988  0.86687627  1
