# generated using pymatgen
data_CuSiH12C2(NCl3)2
_symmetry_space_group_name_H-M   'P 1'
_cell_length_a   8.07352404
_cell_length_b   9.97394010
_cell_length_c   7.57202191
_cell_angle_alpha   88.52885241
_cell_angle_beta   90.19001004
_cell_angle_gamma   90.59744683
_symmetry_Int_Tables_number   1
_chemical_formula_structural   CuSiH12C2(NCl3)2
_chemical_formula_sum   'Si2 Cu2 H24 C4 N4 Cl12'
_cell_volume   609.49893995
_cell_formula_units_Z   2
loop_
 _symmetry_equiv_pos_site_id
 _symmetry_equiv_pos_as_xyz
  1  'x, y, z'
loop_
 _atom_site_type_symbol
 _atom_site_label
 _atom_site_symmetry_multiplicity
 _atom_site_fract_x
 _atom_site_fract_y
 _atom_site_fract_z
 _atom_site_occupancy
  C  C0  1  0.42783496  0.25257654  0.45063979  1
  C  C1  1  0.95289828  0.23742744  0.06977152  1
  C  C2  1  0.57059239  0.75735041  0.55631470  1
  C  C3  1  0.05360649  0.75688749  0.93190428  1
  N  N4  1  0.58256443  0.24666369  0.55692511  1
  N  N5  1  0.09377310  0.25351435  0.94551052  1
  N  N6  1  0.41215551  0.74478626  0.45768989  1
  N  N7  1  0.90507156  0.74958230  0.04639497  1
  H  H8  1  0.46035294  0.26491093  0.31107212  1
  H  H9  1  0.35891824  0.15890631  0.47225602  1
  H  H10  1  0.35469574  0.33695505  0.49457308  1
  H  H11  1  0.65722065  0.16891786  0.51973069  1
  H  H12  1  0.65170080  0.33392336  0.53941827  1
  H  H13  1  0.55833713  0.23437243  0.69179691  1
  H  H14  1  1.00035172  0.23779788  0.20494885  1
  H  H15  1  0.89018912  0.14230774  0.04487793  1
  H  H16  1  0.86698386  0.31997147  0.04683663  1
  H  H17  1  0.18461417  0.18398936  0.97604704  1
  H  H18  1  0.14863526  0.34771456  0.94847848  1
  H  H19  1  0.05670568  0.23913579  0.81512004  1
  H  H20  1  0.54321926  0.75746200  0.69753295  1
  H  H21  1  0.64894977  0.67254773  0.52544156  1
  H  H22  1  0.63182131  0.85114236  0.51610739  1
  H  H23  1  0.33190445  0.82118133  0.48639610  1
  H  H24  1  0.35164574  0.65602566  0.49340491  1
  H  H25  1  0.43074472  0.74818897  0.32123359  1
  H  H26  1  0.01357470  0.75214132  0.79409370  1
  H  H27  1  0.11981046  0.85078548  0.95467182  1
  H  H28  1  0.13368140  0.67209074  0.96378373  1
  H  H29  1  0.82472754  0.82656601  0.01189300  1
  H  H30  1  0.84195017  0.65983093  0.02705635  1
  H  H31  1  0.93543820  0.75828792  0.17937731  1
  Si  Si32  1  0.49834851  0.99951978  0.00644838  1
  Si  Si33  1  0.99088443  0.49896012  0.46812489  1
  Cu  Cu34  1  0.99218283  0.00230067  0.49314654  1
  Cu  Cu35  1  0.53355688  0.50136218  0.81906630  1
  Cl  Cl36  1  0.50744589  0.22457945  0.97719554  1
  Cl  Cl37  1  0.27206580  0.01129595  0.17431526  1
  Cl  Cl38  1  0.66118672  0.01058060  0.24624645  1
  Cl  Cl39  1  0.98553141  0.21145998  0.54458438  1
  Cl  Cl40  1  0.33950135  0.99176076  0.76357093  1
  Cl  Cl41  1  0.72494951  0.98840294  0.83537489  1
  Cl  Cl42  1  0.49127929  0.77470243  0.03768190  1
  Cl  Cl43  1  0.75809731  0.49051797  0.31503534  1
  Cl  Cl44  1  0.16592939  0.50098362  0.24647487  1
  Cl  Cl45  1  0.00815673  0.79198806  0.45326482  1
  Cl  Cl46  1  0.28194566  0.50684356  0.74535411  1
  Cl  Cl47  1  0.79429225  0.50087852  0.82311275  1
