# generated using pymatgen
data_CaSiH12C2(NCl3)2
_symmetry_space_group_name_H-M   'P 1'
_cell_length_a   7.74073704
_cell_length_b   10.63023291
_cell_length_c   7.64865764
_cell_angle_alpha   89.76150423
_cell_angle_beta   89.84776029
_cell_angle_gamma   90.29684384
_symmetry_Int_Tables_number   1
_chemical_formula_structural   CaSiH12C2(NCl3)2
_chemical_formula_sum   'Ca2 Si2 H24 C4 N4 Cl12'
_cell_volume   629.36004371
_cell_formula_units_Z   2
loop_
 _symmetry_equiv_pos_site_id
 _symmetry_equiv_pos_as_xyz
  1  'x, y, z'
loop_
 _atom_site_type_symbol
 _atom_site_label
 _atom_site_symmetry_multiplicity
 _atom_site_fract_x
 _atom_site_fract_y
 _atom_site_fract_z
 _atom_site_occupancy
  C  C0  1  0.43353479  0.25175230  0.40315710  1
  C  C1  1  0.92340574  0.24894489  0.09497799  1
  C  C2  1  0.55060535  0.74039587  0.54942758  1
  C  C3  1  0.04417978  0.75771912  0.95386517  1
  N  N4  1  0.59444529  0.25209542  0.50765356  1
  N  N5  1  0.08597915  0.24688757  0.99232471  1
  N  N6  1  0.43103107  0.74870682  0.39907426  1
  N  N7  1  0.92361745  0.75207349  0.10435307  1
  H  H8  1  0.46871137  0.24453888  0.26488550  1
  H  H9  1  0.35620913  0.16995253  0.44139343  1
  H  H10  1  0.36282368  0.33865048  0.42683465  1
  H  H11  1  0.66337710  0.17050850  0.48106552  1
  H  H12  1  0.67142720  0.32832010  0.47431250  1
  H  H13  1  0.56890269  0.25547905  0.64216263  1
  H  H14  1  0.95690951  0.25192175  0.23383273  1
  H  H15  1  0.84801846  0.16443051  0.06669288  1
  H  H16  1  0.85161944  0.33342636  0.05988621  1
  H  H17  1  0.15872429  0.16900210  0.02585340  1
  H  H18  1  0.15825735  0.32698657  0.02112923  1
  H  H19  1  0.06290740  0.24515307  0.85748827  1
  H  H20  1  0.47474053  0.73631521  0.66957042  1
  H  H21  1  0.62907396  0.65604429  0.53445563  1
  H  H22  1  0.63242991  0.82438648  0.54900079  1
  H  H23  1  0.35693015  0.82963815  0.40193222  1
  H  H24  1  0.34767192  0.67234802  0.39480363  1
  H  H25  1  0.49564075  0.75082908  0.27977513  1
  H  H26  1  0.96947631  0.75653876  0.83330451  1
  H  H27  1  0.12074362  0.84397780  0.96371530  1
  H  H28  1  0.12785568  0.67540980  0.96004884  1
  H  H29  1  0.83710138  0.82588944  0.10230270  1
  H  H30  1  0.85284426  0.66870734  0.10908991  1
  H  H31  1  0.98766023  0.75691475  0.22348537  1
  Si  Si32  1  0.50479245  0.99697005  0.95495662  1
  Si  Si33  1  0.00639841  0.50380905  0.54171988  1
  Ca  Ca34  1  0.00038504  0.99680369  0.51475125  1
  Ca  Ca35  1  0.49789189  0.50445282  0.98202808  1
  Cl  Cl36  1  0.49842277  0.25954242  0.91076808  1
  Cl  Cl37  1  0.19787155  0.99289371  0.23119848  1
  Cl  Cl38  1  0.71765831  0.99661411  0.31935076  1
  Cl  Cl39  1  0.00586436  0.24201425  0.58468298  1
  Cl  Cl40  1  0.32445776  0.98541662  0.71438152  1
  Cl  Cl41  1  0.76662587  0.99025944  0.80870146  1
  Cl  Cl42  1  0.51263160  0.76322571  0.99408815  1
  Cl  Cl43  1  0.69732260  0.51069837  0.26283579  1
  Cl  Cl44  1  0.21754530  0.50125533  0.18201491  1
  Cl  Cl45  1  0.01900932  0.73913900  0.50647947  1
  Cl  Cl46  1  0.26453440  0.51086177  0.68925168  1
  Cl  Cl47  1  0.82175714  0.51217740  0.78123262  1
