# generated using pymatgen
data_TlPH12C2(NCl3)2
_symmetry_space_group_name_H-M   'P 1'
_cell_length_a   7.87182650
_cell_length_b   11.01230043
_cell_length_c   7.45443030
_cell_angle_alpha   85.83149080
_cell_angle_beta   89.99408952
_cell_angle_gamma   90.01848204
_symmetry_Int_Tables_number   1
_chemical_formula_structural   TlPH12C2(NCl3)2
_chemical_formula_sum   'Tl2 P2 H24 C4 N4 Cl12'
_cell_volume   644.49207746
_cell_formula_units_Z   2
loop_
 _symmetry_equiv_pos_site_id
 _symmetry_equiv_pos_as_xyz
  1  'x, y, z'
loop_
 _atom_site_type_symbol
 _atom_site_label
 _atom_site_symmetry_multiplicity
 _atom_site_fract_x
 _atom_site_fract_y
 _atom_site_fract_z
 _atom_site_occupancy
  C  C0  1  0.40430828  0.24962051  0.41526722  1
  C  C1  1  0.90484874  0.25034835  0.08518980  1
  C  C2  1  0.59569568  0.75039193  0.58475964  1
  C  C3  1  0.09516091  0.74964188  0.91481400  1
  N  N4  1  0.56310655  0.24362128  0.52241793  1
  N  N5  1  0.06327374  0.25630209  0.97737951  1
  N  N6  1  0.43688789  0.75638098  0.47762493  1
  N  N7  1  0.93671077  0.74369027  0.02257605  1
  H  H8  1  0.43761298  0.25207430  0.27260983  1
  H  H9  1  0.33046053  0.16738954  0.45072769  1
  H  H10  1  0.33306465  0.33056494  0.44564196  1
  H  H11  1  0.63187921  0.16787251  0.49126736  1
  H  H12  1  0.63762386  0.32059692  0.49251270  1
  H  H13  1  0.53805259  0.23610332  0.66050129  1
  H  H14  1  0.93865183  0.24782874  0.22769884  1
  H  H15  1  0.83330442  0.16945638  0.05505030  1
  H  H16  1  0.83107134  0.33264516  0.05011159  1
  H  H17  1  0.13778225  0.17931437  0.00710660  1
  H  H18  1  0.13228720  0.33203905  0.00813310  1
  H  H19  1  0.03778885  0.26376545  0.83940500  1
  H  H20  1  0.56239685  0.74794944  0.72741547  1
  H  H21  1  0.66693665  0.66943965  0.55441676  1
  H  H22  1  0.66954249  0.83262062  0.54928408  1
  H  H23  1  0.36811136  0.83212692  0.50878086  1
  H  H24  1  0.36239130  0.67939222  0.50756486  1
  H  H25  1  0.46192536  0.76390043  0.33954407  1
  H  H26  1  0.06138086  0.75214717  0.77229916  1
  H  H27  1  0.16670002  0.83053635  0.94494891  1
  H  H28  1  0.16894290  0.66734741  0.94989426  1
  H  H29  1  0.86222381  0.82068668  0.99282647  1
  H  H30  1  0.86772840  0.66794316  0.99173786  1
  H  H31  1  0.96215747  0.73622931  0.16055365  1
  P  P32  1  0.49998099  0.99998332  0.00003664  1
  P  P33  1  1.00000234  0.50001655  0.49983857  1
  Tl  Tl34  1  0.99997755  0.00001610  0.50006027  1
  Tl  Tl35  1  0.50013099  0.49998518  0.99980187  1
  Cl  Cl36  1  0.48358224  0.21975576  0.94165972  1
  Cl  Cl37  1  0.22962664  0.00475656  0.15543873  1
  Cl  Cl38  1  0.64918919  0.01627336  0.28209068  1
  Cl  Cl39  1  0.98326431  0.28025804  0.55842266  1
  Cl  Cl40  1  0.35081204  0.98372759  0.71795262  1
  Cl  Cl41  1  0.77048832  0.99523056  0.84454374  1
  Cl  Cl42  1  0.51637229  0.78032618  0.05835271  1
  Cl  Cl43  1  0.72977761  0.49521867  0.34441781  1
  Cl  Cl44  1  0.14915428  0.48375735  0.21822696  1
  Cl  Cl45  1  0.01671208  0.71971575  0.44153988  1
  Cl  Cl46  1  0.27040982  0.50482058  0.65562072  1
  Cl  Cl47  1  0.85053329  0.51626936  0.78223124  1
