# generated using pymatgen
data_GeH12C3(I3N)2
_symmetry_space_group_name_H-M   'P 1'
_cell_length_a   8.45937618
_cell_length_b   11.75073818
_cell_length_c   8.29075138
_cell_angle_alpha   90.72014562
_cell_angle_beta   89.00732157
_cell_angle_gamma   91.91206582
_symmetry_Int_Tables_number   1
_chemical_formula_structural   GeH12C3(I3N)2
_chemical_formula_sum   'Ge2 H24 C6 I12 N4'
_cell_volume   823.49136690
_cell_formula_units_Z   2
loop_
 _symmetry_equiv_pos_site_id
 _symmetry_equiv_pos_as_xyz
  1  'x, y, z'
loop_
 _atom_site_type_symbol
 _atom_site_label
 _atom_site_symmetry_multiplicity
 _atom_site_fract_x
 _atom_site_fract_y
 _atom_site_fract_z
 _atom_site_occupancy
  C  C0  1  0.42079223  0.25054924  0.43173521  1
  C  C1  1  0.91491561  0.24956157  0.07518757  1
  C  C2  1  0.58388349  0.75026534  0.57613726  1
  C  C3  1  0.08196138  0.74430416  0.92356678  1
  N  N4  1  0.56151667  0.24813412  0.53614329  1
  N  N5  1  0.05607401  0.25056477  0.96640032  1
  N  N6  1  0.44485891  0.74779520  0.46902634  1
  N  N7  1  0.93962595  0.74862636  0.03008948  1
  H  H8  1  0.46083264  0.25173672  0.30548075  1
  H  H9  1  0.34742684  0.17370935  0.45357617  1
  H  H10  1  0.35387159  0.32625299  0.46134492  1
  H  H11  1  0.62767197  0.17726605  0.50665385  1
  H  H12  1  0.63499272  0.31967246  0.52000109  1
  H  H13  1  0.53041271  0.24377831  0.65832060  1
  H  H14  1  0.95439827  0.25043190  0.20024678  1
  H  H15  1  0.84335506  0.17237659  0.05033016  1
  H  H16  1  0.84772102  0.32539881  0.05193970  1
  H  H17  1  0.12399416  0.18055853  0.98827912  1
  H  H18  1  0.12665995  0.32298185  0.98602358  1
  H  H19  1  0.02602465  0.24850783  0.84425235  1
  H  H20  1  0.54175371  0.75379914  0.70155414  1
  H  H21  1  0.65004461  0.67305587  0.55421327  1
  H  H22  1  0.65732320  0.82602516  0.54871129  1
  H  H23  1  0.37857892  0.81920231  0.48830152  1
  H  H24  1  0.37137251  0.67734786  0.49366598  1
  H  H25  1  0.47673466  0.74511798  0.34639367  1
  H  H26  1  0.04390846  0.74277544  0.79806766  1
  H  H27  1  0.15720051  0.81989986  0.94703434  1
  H  H28  1  0.14535440  0.66726031  0.94942795  1
  H  H29  1  0.87455692  0.81955415  0.00486149  1
  H  H30  1  0.86640797  0.67713989  0.01001698  1
  H  H31  1  0.96833276  0.75169968  0.15211867  1
  C  C32  1  0.42603310  0.03123405  0.96860976  1
  C  C33  1  0.99038665  0.53250308  0.42122246  1
  Ge  Ge34  1  0.96698085  0.01683200  0.52362266  1
  Ge  Ge35  1  0.51433055  0.51575873  0.97688189  1
  I  I36  1  0.48199665  0.22347575  0.96528183  1
  I  I37  1  0.23009465  0.00997085  0.16401183  1
  I  I38  1  0.71196603  0.00752968  0.31611819  1
  I  I39  1  0.98989161  0.24950487  0.54797181  1
  I  I40  1  0.31123795  0.99478678  0.72362764  1
  I  I41  1  0.80397588  0.98680193  0.80657270  1
  I  I42  1  0.51456119  0.74546486  0.04294551  1
  I  I43  1  0.74595218  0.49830423  0.31471938  1
  I  I44  1  0.17647511  0.49109462  0.22764956  1
  I  I45  1  0.01761986  0.72809915  0.44844816  1
  I  I46  1  0.31254646  0.50634822  0.71780846  1
  I  I47  1  0.79341654  0.50701968  0.80570249  1
