# generated using pymatgen
data_PH12AuC2(NCl3)2
_symmetry_space_group_name_H-M   'P 1'
_cell_length_a   8.00118415
_cell_length_b   11.10130107
_cell_length_c   7.27028054
_cell_angle_alpha   88.75136879
_cell_angle_beta   93.95035916
_cell_angle_gamma   90.19265081
_symmetry_Int_Tables_number   1
_chemical_formula_structural   PH12AuC2(NCl3)2
_chemical_formula_sum   'P2 H24 Au2 C4 N4 Cl12'
_cell_volume   644.08377889
_cell_formula_units_Z   2
loop_
 _symmetry_equiv_pos_site_id
 _symmetry_equiv_pos_as_xyz
  1  'x, y, z'
loop_
 _atom_site_type_symbol
 _atom_site_label
 _atom_site_symmetry_multiplicity
 _atom_site_fract_x
 _atom_site_fract_y
 _atom_site_fract_z
 _atom_site_occupancy
  C  C0  1  0.44557212  0.28189476  0.45917351  1
  C  C1  1  0.96727865  0.21863966  0.04437804  1
  C  C2  1  0.55053852  0.74205891  0.53148228  1
  C  C3  1  0.06343080  0.75637192  0.97743043  1
  N  N4  1  0.59798388  0.23256655  0.56223755  1
  N  N5  1  0.10855870  0.26782573  0.94345605  1
  N  N6  1  0.37095943  0.75228568  0.46703908  1
  N  N7  1  0.88276071  0.74882162  0.01044000  1
  H  H8  1  0.47072044  0.29541866  0.31417436  1
  H  H9  1  0.34322309  0.21736671  0.47232679  1
  H  H10  1  0.41324229  0.36722321  0.52032951  1
  H  H11  1  0.62710174  0.14771427  0.51854894  1
  H  H12  1  0.70416527  0.28496896  0.54667498  1
  H  H13  1  0.58024946  0.22459071  0.70360611  1
  H  H14  1  0.00732999  0.20608357  0.19025880  1
  H  H15  1  0.92762218  0.13289028  0.98385768  1
  H  H16  1  0.86353352  0.28284917  0.02890392  1
  H  H17  1  0.21796133  0.21783015  0.96533135  1
  H  H18  1  0.13859977  0.35471016  0.98199771  1
  H  H19  1  0.07736099  0.27219029  0.80089920  1
  H  H20  1  0.56074830  0.74701665  0.68193670  1
  H  H21  1  0.59928918  0.65636371  0.48713836  1
  H  H22  1  0.61913350  0.81669508  0.47153308  1
  H  H23  1  0.32270811  0.83304736  0.51219405  1
  H  H24  1  0.29979911  0.68271827  0.51773662  1
  H  H25  1  0.35935487  0.75306093  0.32375439  1
  H  H26  1  0.07695096  0.75227286  0.82902540  1
  H  H27  1  0.11420452  0.84108090  0.03114997  1
  H  H28  1  0.12810914  0.67992135  0.04680140  1
  H  H29  1  0.81655739  0.81977096  0.94470699  1
  H  H30  1  0.83320732  0.66822119  0.95908495  1
  H  H31  1  0.86680779  0.74980053  0.15113787  1
  P  P32  1  0.50282699  0.99851504  0.03676014  1
  P  P33  1  0.98023016  0.50085600  0.46634631  1
  Au  Au34  1  0.03176017  0.99492179  0.68375553  1
  Au  Au35  1  0.53483752  0.50237786  0.81940424  1
  Cl  Cl36  1  0.51173041  0.21909516  0.98379775  1
  Cl  Cl37  1  0.28663779  0.01826438  0.18411020  1
  Cl  Cl38  1  0.69110817  0.00721277  0.25758044  1
  Cl  Cl39  1  0.99283471  0.28108294  0.51946424  1
  Cl  Cl40  1  0.31430952  0.00180934  0.65581642  1
  Cl  Cl41  1  0.75569907  0.97862763  0.74506801  1
  Cl  Cl42  1  0.48636987  0.78476566  0.05284494  1
  Cl  Cl43  1  0.75579827  0.48307566  0.29987850  1
  Cl  Cl44  1  0.15979826  0.49200216  0.26189320  1
  Cl  Cl45  1  0.96887645  0.71625848  0.44850774  1
  Cl  Cl46  1  0.25130456  0.52396411  0.77675478  1
  Cl  Cl47  1  0.82083877  0.49297854  0.82956809  1
