# generated using pymatgen
data_PH12IrC2(NCl3)2
_symmetry_space_group_name_H-M   'P 1'
_cell_length_a   7.18876952
_cell_length_b   12.37861615
_cell_length_c   6.71937997
_cell_angle_alpha   90.81135365
_cell_angle_beta   89.36328616
_cell_angle_gamma   89.54739928
_symmetry_Int_Tables_number   1
_chemical_formula_structural   PH12IrC2(NCl3)2
_chemical_formula_sum   'P2 H24 Ir2 C4 N4 Cl12'
_cell_volume   597.82131231
_cell_formula_units_Z   2
loop_
 _symmetry_equiv_pos_site_id
 _symmetry_equiv_pos_as_xyz
  1  'x, y, z'
loop_
 _atom_site_type_symbol
 _atom_site_label
 _atom_site_symmetry_multiplicity
 _atom_site_fract_x
 _atom_site_fract_y
 _atom_site_fract_z
 _atom_site_occupancy
  C  C0  1  0.43847325  0.23281200  0.51046693  1
  C  C1  1  0.97157637  0.27336073  0.00667525  1
  C  C2  1  0.52125880  0.77120547  0.56324334  1
  C  C3  1  0.07724437  0.71751385  0.91149062  1
  N  N4  1  0.60905095  0.29194511  0.56415770  1
  N  N5  1  0.13194437  0.20012046  0.96972490  1
  N  N6  1  0.35060541  0.71298228  0.50537108  1
  N  N7  1  0.91608798  0.78304255  0.98036271  1
  H  H8  1  0.44507796  0.20802827  0.35388817  1
  H  H9  1  0.42560683  0.16106588  0.60279904  1
  H  H10  1  0.32046026  0.28727349  0.53648039  1
  H  H11  1  0.73267956  0.24939627  0.53338608  1
  H  H12  1  0.61899202  0.36472487  0.49173218  1
  H  H13  1  0.60584426  0.30978803  0.71647352  1
  H  H14  1  0.97069494  0.29897624  0.16284856  1
  H  H15  1  0.84422788  0.22915457  0.97597350  1
  H  H16  1  0.98185375  0.34363262  0.91009725  1
  H  H17  1  0.13484773  0.13405180  0.06527617  1
  H  H18  1  0.25812813  0.24058769  0.98575676  1
  H  H19  1  0.12810319  0.16875084  0.82593181  1
  H  H20  1  0.50252709  0.80666011  0.71211104  1
  H  H21  1  0.63604999  0.71277286  0.56315444  1
  H  H22  1  0.54819457  0.83437461  0.45477938  1
  H  H23  1  0.23212404  0.76212713  0.51284105  1
  H  H24  1  0.33032224  0.64487082  0.59390035  1
  H  H25  1  0.36746605  0.68785502  0.35719502  1
  H  H26  1  0.04295916  0.67863876  0.76997959  1
  H  H27  1  0.19695658  0.77082389  0.89863541  1
  H  H28  1  0.10253661  0.65516211  0.02174904  1
  H  H29  1  0.89492271  0.84973259  0.89275493  1
  H  H30  1  0.79291184  0.73902006  0.98242437  1
  H  H31  1  0.93436977  0.81074500  0.12612233  1
  P  P32  1  0.60215105  0.97330897  0.99719753  1
  P  P33  1  -0.00051038  0.55984941  0.34771170  1
  Ir  Ir34  1  0.96894502  0.00490303  0.48213865  1
  Ir  Ir35  1  0.50962272  0.49851234  0.02574411  1
  Cl  Cl36  1  0.52107559  0.30648120  0.01397659  1
  Cl  Cl37  1  0.19740601  0.99082368  0.23169038  1
  Cl  Cl38  1  0.72947249  0.05383275  0.24207716  1
  Cl  Cl39  1  0.00815220  0.19517104  0.50360410  1
  Cl  Cl40  1  0.19530989  0.97692629  0.72459061  1
  Cl  Cl41  1  0.72483892  0.04446176  0.73635372  1
  Cl  Cl42  1  0.50646359  0.68745040  0.06568613  1
  Cl  Cl43  1  0.73828350  0.48388434  0.28582630  1
  Cl  Cl44  1  0.24558557  0.46493332  0.26389569  1
  Cl  Cl45  1  0.93932118  0.81727298  0.45453119  1
  Cl  Cl46  1  0.29234467  0.49555075  0.76698478  1
  Cl  Cl47  1  0.75746304  0.51552004  0.80050503  1
