# generated using pymatgen
data_InPH12C2(NCl3)2
_symmetry_space_group_name_H-M   'P 1'
_cell_length_a   7.46606754
_cell_length_b   10.74336683
_cell_length_c   7.95778826
_cell_angle_alpha   85.48855632
_cell_angle_beta   90.01976922
_cell_angle_gamma   89.99457770
_symmetry_Int_Tables_number   1
_chemical_formula_structural   InPH12C2(NCl3)2
_chemical_formula_sum   'In2 P2 H24 C4 N4 Cl12'
_cell_volume   636.32206291
_cell_formula_units_Z   2
loop_
 _symmetry_equiv_pos_site_id
 _symmetry_equiv_pos_as_xyz
  1  'x, y, z'
loop_
 _atom_site_type_symbol
 _atom_site_label
 _atom_site_symmetry_multiplicity
 _atom_site_fract_x
 _atom_site_fract_y
 _atom_site_fract_z
 _atom_site_occupancy
  C  C0  1  0.48283630  0.24237110  0.43389885  1
  C  C1  1  0.98449203  0.25296890  0.07461179  1
  C  C2  1  0.51542505  0.75314315  0.57481057  1
  C  C3  1  0.01775044  0.74209235  0.93365288  1
  N  N4  1  0.55504009  0.25240432  0.60598246  1
  N  N5  1  0.05373558  0.23826136  0.90263117  1
  N  N6  1  0.44620704  0.73798257  0.40289419  1
  N  N7  1  0.94506023  0.75259285  0.10540040  1
  H  H8  1  0.59451901  0.24100646  0.34531434  1
  H  H9  1  0.40613657  0.15567696  0.43324131  1
  H  H10  1  0.39682381  0.32294544  0.39983554  1
  H  H11  1  0.63304831  0.17470347  0.64772275  1
  H  H12  1  0.63392157  0.33124781  0.61262263  1
  H  H13  1  0.45652228  0.25646537  0.69682065  1
  H  H14  1  0.09819075  0.25372715  0.16092716  1
  H  H15  1  0.89465174  0.17483332  0.10992836  1
  H  H16  1  0.91153368  0.34139364  0.07457737  1
  H  H17  1  0.13336843  0.15908534  0.89581376  1
  H  H18  1  0.13130534  0.31386335  0.85894284  1
  H  H19  1  0.95096039  0.22873127  0.81779281  1
  H  H20  1  0.40172124  0.75461142  0.66094996  1
  H  H21  1  0.60475095  0.67481910  0.61078725  1
  H  H22  1  0.58900038  0.84133892  0.57426953  1
  H  H23  1  0.36985112  0.81395509  0.35817257  1
  H  H24  1  0.36544136  0.65932536  0.39668765  1
  H  H25  1  0.54904876  0.72707562  0.31858680  1
  H  H26  1  0.90632729  0.74008609  0.84479961  1
  H  H27  1  0.10339263  0.82277813  0.89929950  1
  H  H28  1  0.09495027  0.65555090  0.93385839  1
  H  H29  1  0.86589754  0.83136499  0.11136418  1
  H  H30  1  0.86722047  0.67488766  0.14734603  1
  H  H31  1  0.04334307  0.75707637  0.19644606  1
  P  P32  1  0.49393913  0.99553118  0.00934909  1
  P  P33  1  0.00578440  0.49556699  0.50887644  1
  In  In34  1  0.00332870  0.00398282  0.50731166  1
  In  In35  1  0.49634493  0.50424989  0.00693049  1
  Cl  Cl36  1  0.47573605  0.25116534  0.00430968  1
  Cl  Cl37  1  0.25491825  0.98399773  0.17649436  1
  Cl  Cl38  1  0.68661733  0.98659844  0.22742579  1
  Cl  Cl39  1  0.99185992  0.29237950  0.48799785  1
  Cl  Cl40  1  0.28034036  0.02111551  0.73705009  1
  Cl  Cl41  1  0.77698166  0.02574915  0.78160092  1
  Cl  Cl42  1  0.50773266  0.79254554  0.98816478  1
  Cl  Cl43  1  0.72308023  0.52612827  0.28111471  1
  Cl  Cl44  1  0.21948339  0.52109936  0.23666369  1
  Cl  Cl45  1  0.02363678  0.75075206  0.50394223  1
  Cl  Cl46  1  0.24479807  0.48407842  0.67630515  1
  Cl  Cl47  1  0.81296812  0.48677224  0.72677028  1
