# generated using pymatgen
data_AgPH12C2(NCl3)2
_symmetry_space_group_name_H-M   'P 1'
_cell_length_a   8.03538819
_cell_length_b   10.11082808
_cell_length_c   7.68134456
_cell_angle_alpha   88.70613577
_cell_angle_beta   89.99621533
_cell_angle_gamma   90.05257288
_symmetry_Int_Tables_number   1
_chemical_formula_structural   AgPH12C2(NCl3)2
_chemical_formula_sum   'Ag2 P2 H24 C4 N4 Cl12'
_cell_volume   623.90706828
_cell_formula_units_Z   2
loop_
 _symmetry_equiv_pos_site_id
 _symmetry_equiv_pos_as_xyz
  1  'x, y, z'
loop_
 _atom_site_type_symbol
 _atom_site_label
 _atom_site_symmetry_multiplicity
 _atom_site_fract_x
 _atom_site_fract_y
 _atom_site_fract_z
 _atom_site_occupancy
  C  C0  1  0.46935216  0.28526624  0.44875152  1
  C  C1  1  0.97092415  0.21557794  0.05196933  1
  C  C2  1  0.56566204  0.75289730  0.57449188  1
  C  C3  1  0.06521898  0.74733282  0.92637055  1
  N  N4  1  0.57345102  0.24768084  0.60090523  1
  N  N5  1  0.07296757  0.25133910  0.89756946  1
  N  N6  1  0.39247945  0.74792704  0.50771149  1
  N  N7  1  0.89181975  0.75195701  0.99231954  1
  H  H8  1  0.54753509  0.29296264  0.33300173  1
  H  H9  1  0.37380510  0.20931164  0.43283646  1
  H  H10  1  0.41031312  0.37992295  0.47511389  1
  H  H11  1  0.64353772  0.16305406  0.58298925  1
  H  H12  1  0.65433472  0.32308764  0.63774986  1
  H  H13  1  0.50015916  0.22601510  0.70867753  1
  H  H14  1  0.05047130  0.21026807  0.16678761  1
  H  H15  1  0.91227571  0.12010153  0.02916833  1
  H  H16  1  0.87499347  0.29123777  0.06694116  1
  H  H17  1  0.15464677  0.17613628  0.86237308  1
  H  H18  1  0.14200700  0.33720414  0.91170847  1
  H  H19  1  0.99844553  0.26999408  0.78991353  1
  H  H20  1  0.56204441  0.78046411  0.71145816  1
  H  H21  1  0.62408911  0.65610832  0.56025997  1
  H  H22  1  0.63556201  0.82739666  0.49968632  1
  H  H23  1  0.33052127  0.83499712  0.53525139  1
  H  H24  1  0.32755928  0.66946062  0.56691678  1
  H  H25  1  0.39272083  0.73583933  0.37291457  1
  H  H26  1  0.06227712  0.71957740  0.78947631  1
  H  H27  1  0.12340147  0.84431178  0.94063500  1
  H  H28  1  0.13499543  0.67311677  0.00167281  1
  H  H29  1  0.82720802  0.83051818  0.93310068  1
  H  H30  1  0.82989189  0.66486606  0.96423493  1
  H  H31  1  0.89140725  0.76377766  0.12716302  1
  P  P32  1  0.49288899  0.01637797  0.05992592  1
  P  P33  1  0.99274576  0.48374166  0.44004238  1
  Ag  Ag34  1  0.01133937  0.95940016  0.57870874  1
  Ag  Ag35  1  0.51140067  0.54051336  0.92108327  1
  Cl  Cl36  1  0.48584488  0.22949176  0.01206999  1
  Cl  Cl37  1  0.27628145  0.00572179  0.21115605  1
  Cl  Cl38  1  0.67241264  0.02120812  0.26103245  1
  Cl  Cl39  1  0.98548209  0.27033356  0.48729898  1
  Cl  Cl40  1  0.28807110  0.02371264  0.70879182  1
  Cl  Cl41  1  0.77145927  0.00814017  0.77320191  1
  Cl  Cl42  1  0.49992336  0.73296458  0.11232053  1
  Cl  Cl43  1  0.77637719  0.49424462  0.28842643  1
  Cl  Cl44  1  0.17270253  0.47929751  0.23949868  1
  Cl  Cl45  1  0.99970904  0.76683328  0.38787443  1
  Cl  Cl46  1  0.26994626  0.49261601  0.72810832  1
  Cl  Cl47  1  0.78736125  0.47577287  0.79063684  1
