# generated using pymatgen
data_YPH12C2(NCl3)2
_symmetry_space_group_name_H-M   'P 1'
_cell_length_a   7.36730380
_cell_length_b   12.49329171
_cell_length_c   7.12552500
_cell_angle_alpha   98.71584601
_cell_angle_beta   91.16780208
_cell_angle_gamma   89.64334359
_symmetry_Int_Tables_number   1
_chemical_formula_structural   YPH12C2(NCl3)2
_chemical_formula_sum   'Y2 P2 H24 C4 N4 Cl12'
_cell_volume   648.13506347
_cell_formula_units_Z   2
loop_
 _symmetry_equiv_pos_site_id
 _symmetry_equiv_pos_as_xyz
  1  'x, y, z'
loop_
 _atom_site_type_symbol
 _atom_site_label
 _atom_site_symmetry_multiplicity
 _atom_site_fract_x
 _atom_site_fract_y
 _atom_site_fract_z
 _atom_site_occupancy
  C  C0  1  0.39554334  0.25277530  0.40121826  1
  C  C1  1  0.90563663  0.25039632  0.09957398  1
  C  C2  1  0.60242481  0.75471110  0.60408027  1
  C  C3  1  0.10419237  0.74775035  0.89524841  1
  N  N4  1  0.58008322  0.25835727  0.48828239  1
  N  N5  1  0.08645395  0.23932702  0.01107804  1
  N  N6  1  0.42116962  0.73781679  0.51120192  1
  N  N7  1  0.92215668  0.76563969  0.97873641  1
  H  H8  1  0.40981211  0.23465281  0.24710335  1
  H  H9  1  0.32256466  0.18777353  0.45333067  1
  H  H10  1  0.32539056  0.32992577  0.44333220  1
  H  H11  1  0.65093703  0.18699345  0.44900072  1
  H  H12  1  0.65413709  0.32166125  0.45051849  1
  H  H13  1  0.57197427  0.26999636  0.63683099  1
  H  H14  1  0.92529523  0.26904834  0.25372509  1
  H  H15  1  0.82936257  0.17522982  0.05860994  1
  H  H16  1  0.83401690  0.31679701  0.04636378  1
  H  H17  1  0.15927298  0.17473027  0.04946694  1
  H  H18  1  0.16073026  0.30996075  0.04923232  1
  H  H19  1  0.07230851  0.22682185  0.86273866  1
  H  H20  1  0.58372031  0.77168780  0.75768308  1
  H  H21  1  0.68686407  0.68243510  0.56463415  1
  H  H22  1  0.66508581  0.82401302  0.55470185  1
  H  H23  1  0.33994618  0.80549794  0.54702706  1
  H  H24  1  0.35786791  0.67041803  0.54974028  1
  H  H25  1  0.43349219  0.72537549  0.36341931  1
  H  H26  1  0.08701188  0.72843689  0.74099646  1
  H  H27  1  0.18596331  0.82087547  0.93525108  1
  H  H28  1  0.16770359  0.67985042  0.95171554  1
  H  H29  1  0.85997036  0.83347231  0.93664304  1
  H  H30  1  0.83864276  0.69945508  0.94142209  1
  H  H31  1  0.93313736  0.77779308  0.12749692  1
  P  P32  1  0.48892506  0.00235673  0.06043826  1
  P  P33  1  0.92552863  0.49984421  0.50791469  1
  Y  Y34  1  0.00904308  0.99667326  0.51924378  1
  Y  Y35  1  0.47831028  0.49934635  0.98249421  1
  Cl  Cl36  1  0.49060940  0.28962452  0.91503574  1
  Cl  Cl37  1  0.20736664  0.01053536  0.18513270  1
  Cl  Cl38  1  0.66434377  0.99917074  0.32514064  1
  Cl  Cl39  1  0.98300995  0.20562993  0.57810533  1
  Cl  Cl40  1  0.31785122  0.99449232  0.68447013  1
  Cl  Cl41  1  0.82935819  0.98695351  0.82161189  1
  Cl  Cl42  1  0.53346806  0.70414887  0.08707857  1
  Cl  Cl43  1  0.66811702  0.48388066  0.33385560  1
  Cl  Cl44  1  0.18536133  0.49462034  0.16553317  1
  Cl  Cl45  1  0.01493479  0.78984691  0.40632547  1
  Cl  Cl46  1  0.31642368  0.51791059  0.67027509  1
  Cl  Cl47  1  0.81450412  0.49536832  0.79723763  1
