# generated using pymatgen
data_GaPH12C2(NCl3)2
_symmetry_space_group_name_H-M   'P 1'
_cell_length_a   7.92464543
_cell_length_b   10.81760781
_cell_length_c   7.50589386
_cell_angle_alpha   86.29742121
_cell_angle_beta   89.92436890
_cell_angle_gamma   90.04076980
_symmetry_Int_Tables_number   1
_chemical_formula_structural   GaPH12C2(NCl3)2
_chemical_formula_sum   'Ga2 P2 H24 C4 N4 Cl12'
_cell_volume   642.10422744
_cell_formula_units_Z   2
loop_
 _symmetry_equiv_pos_site_id
 _symmetry_equiv_pos_as_xyz
  1  'x, y, z'
loop_
 _atom_site_type_symbol
 _atom_site_label
 _atom_site_symmetry_multiplicity
 _atom_site_fract_x
 _atom_site_fract_y
 _atom_site_fract_z
 _atom_site_occupancy
  C  C0  1  0.43263124  0.26092448  0.44098042  1
  C  C1  1  0.93673036  0.24017461  0.05943437  1
  C  C2  1  0.58223748  0.75702165  0.57474597  1
  C  C3  1  0.08206597  0.74337788  0.92669878  1
  N  N4  1  0.57842876  0.23183093  0.56038322  1
  N  N5  1  0.08110660  0.26594426  0.93633312  1
  N  N6  1  0.40999204  0.76210255  0.49764056  1
  N  N7  1  0.90906216  0.73911288  0.00245136  1
  H  H8  1  0.47583745  0.26940441  0.30221241  1
  H  H9  1  0.34121694  0.18542246  0.45946695  1
  H  H10  1  0.37565394  0.34727054  0.47941083  1
  H  H11  1  0.62773305  0.14540269  0.54202423  1
  H  H12  1  0.67679939  0.29410779  0.53936436  1
  H  H13  1  0.54395840  0.23190983  0.69567517  1
  H  H14  1  0.98195085  0.23370909  0.19736232  1
  H  H15  1  0.87757541  0.15350787  0.02540848  1
  H  H16  1  0.84640757  0.31619587  0.03997162  1
  H  H17  1  0.17823200  0.20280231  0.95750515  1
  H  H18  1  0.13284387  0.35228119  0.95027429  1
  H  H19  1  0.04427216  0.26412141  0.80195122  1
  H  H20  1  0.57074511  0.75707448  0.71991206  1
  H  H21  1  0.64440888  0.67226038  0.53828946  1
  H  H22  1  0.65315772  0.83865908  0.52493349  1
  H  H23  1  0.34723925  0.84021453  0.54001203  1
  H  H24  1  0.34345883  0.68282535  0.54380528  1
  H  H25  1  0.41382961  0.76643959  0.35927809  1
  H  H26  1  0.07183462  0.74478552  0.78135137  1
  H  H27  1  0.14546159  0.82713513  0.96528750  1
  H  H28  1  0.15109329  0.66071373  0.97542895  1
  H  H29  1  0.84371091  0.81883025  0.95604793  1
  H  H30  1  0.84584791  0.66138326  0.95938559  1
  H  H31  1  0.91154613  0.73448534  0.14071825  1
  P  P32  1  0.49069132  0.99327856  0.03253746  1
  P  P33  1  0.99009870  0.50724082  0.46732122  1
  Ga  Ga34  1  0.00213557  0.00583331  0.52812359  1
  Ga  Ga35  1  0.50242989  0.49420295  0.97316453  1
  Cl  Cl36  1  0.48680123  0.23657060  0.96588074  1
  Cl  Cl37  1  0.25830040  0.00558887  0.17622079  1
  Cl  Cl38  1  0.65812466  0.01355060  0.25226254  1
  Cl  Cl39  1  0.98375596  0.26082214  0.53368651  1
  Cl  Cl40  1  0.28408024  0.99400323  0.69934100  1
  Cl  Cl41  1  0.79557872  0.98979697  0.79736977  1
  Cl  Cl42  1  0.49813073  0.78325742  0.06594595  1
  Cl  Cl43  1  0.75778061  0.49476634  0.32473433  1
  Cl  Cl44  1  0.15755152  0.48616718  0.24810525  1
  Cl  Cl45  1  0.99841314  0.71573208  0.43537601  1
  Cl  Cl46  1  0.29588028  0.51089766  0.70440273  1
  Cl  Cl47  1  0.78320126  0.50693822  0.80207932  1
