# generated using pymatgen
data_CuPH12C2(NCl3)2
_symmetry_space_group_name_H-M   'P 1'
_cell_length_a   8.01466906
_cell_length_b   9.73924329
_cell_length_c   7.77972296
_cell_angle_alpha   90.46468186
_cell_angle_beta   90.16565273
_cell_angle_gamma   90.27154496
_symmetry_Int_Tables_number   1
_chemical_formula_structural   CuPH12C2(NCl3)2
_chemical_formula_sum   'Cu2 P2 H24 C4 N4 Cl12'
_cell_volume   607.23097382
_cell_formula_units_Z   2
loop_
 _symmetry_equiv_pos_site_id
 _symmetry_equiv_pos_as_xyz
  1  'x, y, z'
loop_
 _atom_site_type_symbol
 _atom_site_label
 _atom_site_symmetry_multiplicity
 _atom_site_fract_x
 _atom_site_fract_y
 _atom_site_fract_z
 _atom_site_occupancy
  C  C0  1  0.46376007  0.27088124  0.45533401  1
  C  C1  1  0.96719428  0.23224644  0.04516572  1
  C  C2  1  0.55700194  0.76327646  0.55653983  1
  C  C3  1  0.05358823  0.73482070  0.94288524  1
  N  N4  1  0.58584967  0.23935454  0.59250793  1
  N  N5  1  0.08689054  0.25786386  0.90432812  1
  N  N6  1  0.38815532  0.74634168  0.48104056  1
  N  N7  1  0.88662559  0.75382752  0.02051369  1
  H  H8  1  0.52921906  0.28560874  0.33407574  1
  H  H9  1  0.37533565  0.18538106  0.44528172  1
  H  H10  1  0.39786384  0.36413381  0.49337409  1
  H  H11  1  0.66062647  0.15581643  0.56482854  1
  H  H12  1  0.66338810  0.32273440  0.62292923  1
  H  H13  1  0.52578279  0.21560155  0.70621793  1
  H  H14  1  0.03471176  0.22390161  0.16652270  1
  H  H15  1  0.90065782  0.13691483  0.01517832  1
  H  H16  1  0.87893348  0.31741904  0.04962364  1
  H  H17  1  0.16740205  0.17570946  0.88306849  1
  H  H18  1  0.15869730  0.34580765  0.92118465  1
  H  H19  1  0.02528605  0.27085447  0.78829557  1
  H  H20  1  0.54420714  0.78875039  0.69317991  1
  H  H21  1  0.62609461  0.66761505  0.54004936  1
  H  H22  1  0.62267748  0.84635849  0.49172724  1
  H  H23  1  0.31671488  0.83328513  0.50187020  1
  H  H24  1  0.32659021  0.66522738  0.54078708  1
  H  H25  1  0.39441387  0.72694888  0.34900660  1
  H  H26  1  0.03765730  0.71101690  0.80602623  1
  H  H27  1  0.12650033  0.82907410  0.96017257  1
  H  H28  1  0.11711511  0.64990840  0.00556441  1
  H  H29  1  0.82642355  0.83558380  0.96121413  1
  H  H30  1  0.81234965  0.66771624  0.00102594  1
  H  H31  1  0.89560016  0.77326399  0.15246454  1
  P  P32  1  0.49473225  0.01439198  0.04347025  1
  P  P33  1  0.99338253  0.48690936  0.45769184  1
  Cu  Cu34  1  0.02309015  0.94541102  0.62531068  1
  Cu  Cu35  1  0.52245986  0.55538622  0.87687312  1
  Cl  Cl36  1  0.49829568  0.23396748  0.00267820  1
  Cl  Cl37  1  0.27748844  0.00831208  0.19300918  1
  Cl  Cl38  1  0.67588790  0.01594877  0.24196861  1
  Cl  Cl39  1  0.99547897  0.26639640  0.49660380  1
  Cl  Cl40  1  0.27687876  0.01340000  0.71090542  1
  Cl  Cl41  1  0.79058518  0.99934136  0.76834115  1
  Cl  Cl42  1  0.49216181  0.71046996  0.08659942  1
  Cl  Cl43  1  0.77750613  0.49200496  0.30485713  1
  Cl  Cl44  1  0.17585973  0.48708671  0.26221139  1
  Cl  Cl45  1  0.99337339  0.79009323  0.41493626  1
  Cl  Cl46  1  0.28697954  0.50244565  0.73457773  1
  Cl  Cl47  1  0.77254912  0.48526884  0.78827851  1
