# generated using pymatgen
data_ScPH12C2(NCl3)2
_symmetry_space_group_name_H-M   'P 1'
_cell_length_a   7.59404645
_cell_length_b   12.13229159
_cell_length_c   7.00206913
_cell_angle_alpha   99.01152064
_cell_angle_beta   90.00037647
_cell_angle_gamma   89.72729664
_symmetry_Int_Tables_number   1
_chemical_formula_structural   ScPH12C2(NCl3)2
_chemical_formula_sum   'Sc2 P2 H24 C4 N4 Cl12'
_cell_volume   637.15270220
_cell_formula_units_Z   2
loop_
 _symmetry_equiv_pos_site_id
 _symmetry_equiv_pos_as_xyz
  1  'x, y, z'
loop_
 _atom_site_type_symbol
 _atom_site_label
 _atom_site_symmetry_multiplicity
 _atom_site_fract_x
 _atom_site_fract_y
 _atom_site_fract_z
 _atom_site_occupancy
  C  C0  1  0.41867524  0.23722511  0.40325145  1
  C  C1  1  0.92220239  0.26265546  0.09712110  1
  C  C2  1  0.58994855  0.76671776  0.59328634  1
  C  C3  1  0.08828980  0.73305741  0.90682737  1
  N  N4  1  0.59730894  0.24970299  0.48929261  1
  N  N5  1  0.10032370  0.25010923  0.00929707  1
  N  N6  1  0.41977495  0.73024821  0.50094322  1
  N  N7  1  0.91826715  0.77017349  0.00013044  1
  H  H8  1  0.43235656  0.21095821  0.24687690  1
  H  H9  1  0.34910021  0.17334886  0.46740246  1
  H  H10  1  0.34828580  0.31687926  0.43605904  1
  H  H11  1  0.66994999  0.17671368  0.45080434  1
  H  H12  1  0.66524914  0.31532416  0.44578418  1
  H  H13  1  0.58876467  0.26572276  0.64026970  1
  H  H14  1  0.93645008  0.28917341  0.25329850  1
  H  H15  1  0.85284518  0.18302680  0.06519274  1
  H  H16  1  0.85110920  0.32638970  0.03313123  1
  H  H17  1  0.17034343  0.18434480  0.05118285  1
  H  H18  1  0.17216558  0.32299030  0.04728318  1
  H  H19  1  0.09039333  0.23435989  0.85844942  1
  H  H20  1  0.56769093  0.79192936  0.74841975  1
  H  H21  1  0.68521807  0.69769160  0.56594584  1
  H  H22  1  0.63757103  0.83753724  0.52929362  1
  H  H23  1  0.32352616  0.79154022  0.52718000  1
  H  H24  1  0.37279651  0.65893805  0.54877077  1
  H  H25  1  0.43526764  0.71215346  0.35090218  1
  H  H26  1  0.06555640  0.70762693  0.75188941  1
  H  H27  1  0.18293708  0.80182153  0.93322922  1
  H  H28  1  0.13688868  0.66229148  0.97106344  1
  H  H29  1  0.87067572  0.84167095  0.95245186  1
  H  H30  1  0.82225437  0.70931282  0.97460796  1
  H  H31  1  0.93435928  0.78832189  0.15008810  1
  P  P32  1  0.39909214  -0.00007084  0.99024733  1
  P  P33  1  0.90079874  0.50214418  0.51060231  1
  Sc  Sc34  1  0.96983664  0.99936472  0.53437968  1
  Sc  Sc35  1  0.47115367  0.50078802  0.96574898  1
  Cl  Cl36  1  0.50643006  0.30057408  0.92980767  1
  Cl  Cl37  1  0.15788199  0.00849577  0.15794854  1
  Cl  Cl38  1  0.72218977  0.99871279  0.32378402  1
  Cl  Cl39  1  0.00317354  0.19946629  0.57062912  1
  Cl  Cl40  1  0.29409479  0.00154276  0.69417158  1
  Cl  Cl41  1  0.81363040  0.99361630  0.82109152  1
  Cl  Cl42  1  0.52522324  0.69841233  0.06397308  1
  Cl  Cl43  1  0.65984970  0.48974461  0.34203197  1
  Cl  Cl44  1  0.22308402  0.50136756  0.17555697  1
  Cl  Cl45  1  0.02589297  0.80161890  0.43635145  1
  Cl  Cl46  1  0.31547436  0.50700486  0.67873208  1
  Cl  Cl47  1  0.79567192  0.49733892  0.80551401  1
