# generated using pymatgen
data_CaH12PbC2(NCl3)2
_symmetry_space_group_name_H-M   'P 1'
_cell_length_a   8.09747837
_cell_length_b   11.09177974
_cell_length_c   7.40644472
_cell_angle_alpha   89.78190154
_cell_angle_beta   89.99598138
_cell_angle_gamma   89.98615425
_symmetry_Int_Tables_number   1
_chemical_formula_structural   CaH12PbC2(NCl3)2
_chemical_formula_sum   'Ca2 H24 Pb2 C4 N4 Cl12'
_cell_volume   665.20829952
_cell_formula_units_Z   2
loop_
 _symmetry_equiv_pos_site_id
 _symmetry_equiv_pos_as_xyz
  1  'x, y, z'
loop_
 _atom_site_type_symbol
 _atom_site_label
 _atom_site_symmetry_multiplicity
 _atom_site_fract_x
 _atom_site_fract_y
 _atom_site_fract_z
 _atom_site_occupancy
  C  C0  1  0.41483466  0.24985850  0.44316943  1
  C  C1  1  0.91475112  0.24961112  0.05680906  1
  C  C2  1  0.58518664  0.75015172  0.55691662  1
  C  C3  1  0.08530612  0.75044713  0.94324356  1
  N  N4  1  0.58400856  0.24997689  0.51989272  1
  N  N5  1  0.08392162  0.25019947  0.98005301  1
  N  N6  1  0.41602022  0.74999613  0.48017686  1
  N  N7  1  0.91613836  0.74991984  0.02001236  1
  H  H8  1  0.42413222  0.24954804  0.29582987  1
  H  H9  1  0.35118677  0.16865093  0.48954773  1
  H  H10  1  0.35021686  0.33065436  0.48871657  1
  H  H11  1  0.64760072  0.17414101  0.47544115  1
  H  H12  1  0.64820619  0.32600889  0.47582074  1
  H  H13  1  0.57987347  0.24932166  0.66049224  1
  H  H14  1  0.92404977  0.24972988  0.20414780  1
  H  H15  1  0.85073519  0.16864276  0.01101479  1
  H  H16  1  0.85049040  0.33064785  0.01071861  1
  H  H17  1  0.14863444  0.17434920  0.02393914  1
  H  H18  1  0.14699180  0.32621452  0.02468866  1
  H  H19  1  0.07979411  0.25096178  0.83945832  1
  H  H20  1  0.57588899  0.75046236  0.70425728  1
  H  H21  1  0.64984907  0.66937632  0.51135972  1
  H  H22  1  0.64879447  0.83137887  0.51055309  1
  H  H23  1  0.35237948  0.82580465  0.52463822  1
  H  H24  1  0.35184993  0.67393622  0.52421350  1
  H  H25  1  0.42016778  0.75064760  0.33957808  1
  H  H26  1  0.07600981  0.75028812  0.79590583  1
  H  H27  1  0.14934727  0.83141355  0.98900337  1
  H  H28  1  0.14954386  0.66941377  0.98938752  1
  H  H29  1  0.85149502  0.82582785  0.97620673  1
  H  H30  1  0.85297834  0.67396555  0.97534509  1
  H  H31  1  0.92029529  0.74910504  0.16061225  1
  Ca  Ca32  1  0.49988530  0.99992611  0.00014166  1
  Ca  Ca33  1  0.99992689  0.49991386  0.49966923  1
  Pb  Pb34  1  0.99994762  0.99992338  0.50015548  1
  Pb  Pb35  1  0.50003327  0.49993523  0.99955832  1
  Cl  Cl36  1  0.49057980  0.24371078  0.94028481  1
  Cl  Cl37  1  0.21317326  0.01780115  0.19216792  1
  Cl  Cl38  1  0.69870574  0.01866967  0.29701554  1
  Cl  Cl39  1  0.99061757  0.25616846  0.55956955  1
  Cl  Cl40  1  0.30115149  0.98128772  0.70315061  1
  Cl  Cl41  1  0.78660921  0.98224197  0.80805998  1
  Cl  Cl42  1  0.50936173  0.75614583  0.05970781  1
  Cl  Cl43  1  0.71309765  0.48235770  0.30782391  1
  Cl  Cl44  1  0.19875531  0.48139143  0.20276213  1
  Cl  Cl45  1  0.00938656  0.74372170  0.44040194  1
  Cl  Cl46  1  0.28667045  0.51758128  0.69177844  1
  Cl  Cl47  1  0.80144332  0.51865044  0.79689938  1
