# generated using pymatgen
data_CaHgH12C2(NCl3)2
_symmetry_space_group_name_H-M   'P 1'
_cell_length_a   7.66969510
_cell_length_b   10.89143727
_cell_length_c   7.39175318
_cell_angle_alpha   89.97800513
_cell_angle_beta   89.98705610
_cell_angle_gamma   90.00746130
_symmetry_Int_Tables_number   1
_chemical_formula_structural   CaHgH12C2(NCl3)2
_chemical_formula_sum   'Ca2 Hg2 H24 C4 N4 Cl12'
_cell_volume   617.46266639
_cell_formula_units_Z   2
loop_
 _symmetry_equiv_pos_site_id
 _symmetry_equiv_pos_as_xyz
  1  'x, y, z'
loop_
 _atom_site_type_symbol
 _atom_site_label
 _atom_site_symmetry_multiplicity
 _atom_site_fract_x
 _atom_site_fract_y
 _atom_site_fract_z
 _atom_site_occupancy
  C  C0  1  0.40087927  0.24953140  0.41415619  1
  C  C1  1  0.90158472  0.25055202  0.08633888  1
  C  C2  1  0.59911740  0.75047340  0.58585560  1
  C  C3  1  0.09841926  0.74945093  0.91367249  1
  N  N4  1  0.56057501  0.24998391  0.52577116  1
  N  N5  1  0.06087049  0.24996906  0.97403130  1
  N  N6  1  0.43942181  0.75002121  0.47424047  1
  N  N7  1  0.93913445  0.75003126  0.02598132  1
  H  H8  1  0.43840515  0.24966582  0.27157013  1
  H  H9  1  0.32498216  0.16776839  0.44578504  1
  H  H10  1  0.32669213  0.33225747  0.44439703  1
  H  H11  1  0.63525062  0.17301320  0.49726069  1
  H  H12  1  0.63425079  0.32705340  0.49503604  1
  H  H13  1  0.53228555  0.25087076  0.66412302  1
  H  H14  1  0.93965371  0.25043722  0.22875070  1
  H  H15  1  0.82713953  0.16785673  0.05652165  1
  H  H16  1  0.82569786  0.33235496  0.05501128  1
  H  H17  1  0.13452328  0.17286712  0.00449409  1
  H  H18  1  0.13576354  0.32689804  0.00220212  1
  H  H19  1  0.03210307  0.24907896  0.83579857  1
  H  H20  1  0.56159259  0.75034069  0.72844132  1
  H  H21  1  0.67330346  0.66774647  0.55561564  1
  H  H22  1  0.67501567  0.83223557  0.55422409  1
  H  H23  1  0.36474722  0.82699276  0.50275034  1
  H  H24  1  0.36574430  0.67295242  0.50497699  1
  H  H25  1  0.46771088  0.74913326  0.33588921  1
  H  H26  1  0.06034905  0.74956812  0.77126096  1
  H  H27  1  0.17286408  0.83214605  0.94349206  1
  H  H28  1  0.17430713  0.66764784  0.94499586  1
  H  H29  1  0.86547904  0.82713189  0.99552056  1
  H  H30  1  0.86424353  0.67310108  0.99781029  1
  H  H31  1  0.96790291  0.75092085  0.16421404  1
  Ca  Ca32  1  0.50000153  0.00000159  0.00000633  1
  Ca  Ca33  1  0.99999985  0.50000154  0.50000644  1
  Hg  Hg34  1  1.00000003  0.00000178  0.50000690  1
  Hg  Hg35  1  0.50000032  0.50000209  0.00000631  1
  Cl  Cl36  1  0.47937557  0.24825487  0.94295973  1
  Cl  Cl37  1  0.19144737  0.00930696  0.19033209  1
  Cl  Cl38  1  0.69938611  0.00932638  0.31462133  1
  Cl  Cl39  1  0.97885602  0.25174666  0.55726712  1
  Cl  Cl40  1  0.30061467  0.99067865  0.68539278  1
  Cl  Cl41  1  0.80855645  0.99069420  0.80968285  1
  Cl  Cl42  1  0.52062992  0.75174868  0.05705485  1
  Cl  Cl43  1  0.69156021  0.49064854  0.30970407  1
  Cl  Cl44  1  0.19947749  0.49069140  0.18527526  1
  Cl  Cl45  1  0.02114338  0.74825638  0.44274642  1
  Cl  Cl46  1  0.30844119  0.50935405  0.69030776  1
  Cl  Cl47  1  0.80052401  0.50931224  0.81473727  1
