# generated using pymatgen
data_ZnH12C3(I3N)2
_symmetry_space_group_name_H-M   'P 1'
_cell_length_a   7.13660454
_cell_length_b   13.25656875
_cell_length_c   8.63160328
_cell_angle_alpha   90.17983950
_cell_angle_beta   90.01559110
_cell_angle_gamma   89.95780867
_symmetry_Int_Tables_number   1
_chemical_formula_structural   ZnH12C3(I3N)2
_chemical_formula_sum   'Zn2 H24 C6 I12 N4'
_cell_volume   816.60485710
_cell_formula_units_Z   2
loop_
 _symmetry_equiv_pos_site_id
 _symmetry_equiv_pos_as_xyz
  1  'x, y, z'
loop_
 _atom_site_type_symbol
 _atom_site_label
 _atom_site_symmetry_multiplicity
 _atom_site_fract_x
 _atom_site_fract_y
 _atom_site_fract_z
 _atom_site_occupancy
  C  C0  1  0.44058628  0.23507554  0.36480992  1
  C  C1  1  0.92957726  0.25743155  0.15254054  1
  C  C2  1  0.57005363  0.75731274  0.65268224  1
  C  C3  1  0.05949181  0.73525758  0.86528731  1
  N  N4  1  0.49653520  0.28726260  0.50985656  1
  N  N5  1  0.99132556  0.25038213  0.98889685  1
  N  N6  1  0.50837835  0.75040817  0.48898202  1
  N  N7  1  0.00400712  0.78732072  0.01058886  1
  H  H8  1  0.56586603  0.22050645  0.29532153  1
  H  H9  1  0.37097719  0.16397209  0.39362280  1
  H  H10  1  0.34627354  0.28493030  0.30065823  1
  H  H11  1  0.60212146  0.24895520  0.56817565  1
  H  H12  1  0.54929045  0.35921809  0.48533052  1
  H  H13  1  0.38366234  0.29554932  0.58434614  1
  H  H14  1  0.05117914  0.27334973  0.22554750  1
  H  H15  1  0.86713508  0.18522632  0.18601353  1
  H  H16  1  0.82856241  0.31936142  0.16285201  1
  H  H17  1  0.08877424  0.19280617  0.97412827  1
  H  H18  1  0.05341741  0.31712873  0.95372966  1
  H  H19  1  0.87946105  0.23608805  0.91484534  1
  H  H20  1  0.44833482  0.77301061  0.72566297  1
  H  H21  1  0.63295901  0.68513804  0.68598063  1
  H  H22  1  0.67068273  0.81933656  0.66323706  1
  H  H23  1  0.44600293  0.81717678  0.45398094  1
  H  H24  1  0.41117108  0.69282003  0.47399016  1
  H  H25  1  0.62032545  0.73623664  0.41496588  1
  H  H26  1  0.93396040  0.72066420  0.79613774  1
  H  H27  1  0.15328048  0.78522236  0.80096991  1
  H  H28  1  0.12956011  0.66416951  0.89380483  1
  H  H29  1  0.95073521  0.85923161  0.98625439  1
  H  H30  1  0.89894733  0.74886954  0.06917196  1
  H  H31  1  0.11720865  0.79566517  0.08470542  1
  C  C32  1  0.04921774  0.92326876  0.37799632  1
  C  C33  1  0.45054669  0.42393309  0.87842540  1
  Zn  Zn34  1  0.56875582  0.94525539  0.10515981  1
  Zn  Zn35  1  0.93127646  0.44522310  0.60551228  1
  I  I36  1  0.49365763  0.25360149  0.91402498  1
  I  I37  1  0.23787681  0.02629799  0.11244875  1
  I  I38  1  0.73476456  0.99537038  0.38053528  1
  I  I39  1  0.98269253  0.24966394  0.59005724  1
  I  I40  1  0.20975719  0.97538205  0.58838445  1
  I  I41  1  0.75856274  0.00347401  0.86642646  1
  I  I42  1  0.51757025  0.74973447  0.09010418  1
  I  I43  1  0.74155067  0.50349366  0.36658757  1
  I  I44  1  0.29005762  0.47562378  0.08915400  1
  I  I45  1  0.00581602  0.75312382  0.41477373  1
  I  I46  1  0.26233874  0.52596531  0.61286985  1
  I  I47  1  0.76573848  0.49558306  0.88075890  1
