# generated using pymatgen
data_CaH12PtC2(NCl3)2
_symmetry_space_group_name_H-M   'P 1'
_cell_length_a   7.87944244
_cell_length_b   10.11177986
_cell_length_c   7.98232464
_cell_angle_alpha   89.06230239
_cell_angle_beta   74.47758376
_cell_angle_gamma   88.71214953
_symmetry_Int_Tables_number   1
_chemical_formula_structural   CaH12PtC2(NCl3)2
_chemical_formula_sum   'Ca2 H24 Pt2 C4 N4 Cl12'
_cell_volume   612.60572415
_cell_formula_units_Z   2
loop_
 _symmetry_equiv_pos_site_id
 _symmetry_equiv_pos_as_xyz
  1  'x, y, z'
loop_
 _atom_site_type_symbol
 _atom_site_label
 _atom_site_symmetry_multiplicity
 _atom_site_fract_x
 _atom_site_fract_y
 _atom_site_fract_z
 _atom_site_occupancy
  C  C0  1  0.44273195  0.24483508  0.38355177  1
  C  C1  1  0.94904720  0.24881278  0.06821628  1
  C  C2  1  0.55726070  0.75516793  0.61645638  1
  C  C3  1  0.05095196  0.75119472  0.93180435  1
  N  N4  1  0.56370273  0.24596682  0.49705934  1
  N  N5  1  0.05468787  0.25059796  0.88464654  1
  N  N6  1  0.43630260  0.75402731  0.50293420  1
  N  N7  1  0.94532155  0.74940705  0.11537771  1
  H  H8  1  0.52223738  0.24405329  0.24855941  1
  H  H9  1  0.36110428  0.15710884  0.41353079  1
  H  H10  1  0.36185042  0.33503487  0.40644516  1
  H  H11  1  0.64421783  0.16236893  0.47703070  1
  H  H12  1  0.64224803  0.32972014  0.46683639  1
  H  H13  1  0.49836957  0.24899277  0.62823783  1
  H  H14  1  0.03771815  0.26027769  0.15096321  1
  H  H15  1  0.88265370  0.15396250  0.09662060  1
  H  H16  1  0.85365198  0.33116663  0.08839633  1
  H  H17  1  0.14718472  0.17240927  0.85632261  1
  H  H18  1  0.12285970  0.33826403  0.85043921  1
  H  H19  1  0.97589926  0.24121068  0.80077833  1
  H  H20  1  0.47774179  0.75596333  0.75144192  1
  H  H21  1  0.63813470  0.66496503  0.59358474  1
  H  H22  1  0.63889239  0.84288994  0.58647053  1
  H  H23  1  0.35578787  0.83762435  0.52294509  1
  H  H24  1  0.35775586  0.67027425  0.53316112  1
  H  H25  1  0.50164575  0.75099155  0.37175727  1
  H  H26  1  0.96227468  0.73972617  0.84906487  1
  H  H27  1  0.11733883  0.84604738  0.90339697  1
  H  H28  1  0.14635204  0.66884421  0.91161827  1
  H  H29  1  0.85282001  0.82759254  0.14370580  1
  H  H30  1  0.87715623  0.66173881  0.14958854  1
  H  H31  1  0.02411554  0.75879901  0.19923989  1
  Ca  Ca32  1  0.49999953  0.00000365  0.00000750  1
  Ca  Ca33  1  0.00000038  0.50000217  0.50000447  1
  Pt  Pt34  1  0.99999828  0.00000306  0.50001160  1
  Pt  Pt35  1  0.50000277  0.50000253  0.00000247  1
  Cl  Cl36  1  0.48706760  0.27969008  0.92573956  1
  Cl  Cl37  1  0.16277945  0.00182644  0.21171327  1
  Cl  Cl38  1  0.66456976  0.97895237  0.25224690  1
  Cl  Cl39  1  0.97380710  0.22800515  0.50245403  1
  Cl  Cl40  1  0.33543133  0.02105234  0.74776786  1
  Cl  Cl41  1  0.83722021  0.99817947  0.78830996  1
  Cl  Cl42  1  0.51293969  0.72031571  0.07426226  1
  Cl  Cl43  1  0.74356062  0.50879984  0.34233271  1
  Cl  Cl44  1  0.20837409  0.49468502  0.16128503  1
  Cl  Cl45  1  0.02618664  0.77200077  0.49757354  1
  Cl  Cl46  1  0.25643710  0.49120454  0.65767976  1
  Cl  Cl47  1  0.79163191  0.50531927  0.83872353  1
