# generated using pymatgen
data_CaH12OsC2(NCl3)2
_symmetry_space_group_name_H-M   'P 1'
_cell_length_a   7.50295382
_cell_length_b   10.28872006
_cell_length_c   7.21790189
_cell_angle_alpha   91.47750167
_cell_angle_beta   89.99029316
_cell_angle_gamma   90.00582943
_symmetry_Int_Tables_number   1
_chemical_formula_structural   CaH12OsC2(NCl3)2
_chemical_formula_sum   'Ca2 H24 Os2 C4 N4 Cl12'
_cell_volume   557.00638699
_cell_formula_units_Z   2
loop_
 _symmetry_equiv_pos_site_id
 _symmetry_equiv_pos_as_xyz
  1  'x, y, z'
loop_
 _atom_site_type_symbol
 _atom_site_label
 _atom_site_symmetry_multiplicity
 _atom_site_fract_x
 _atom_site_fract_y
 _atom_site_fract_z
 _atom_site_occupancy
  C  C0  1  0.42130722  0.24742421  0.42311762  1
  C  C1  1  0.92171975  0.25266668  0.07684214  1
  C  C2  1  0.57869610  0.75257779  0.57689608  1
  C  C3  1  0.07827743  0.74733751  0.92317290  1
  N  N4  1  0.58333473  0.25037191  0.53770801  1
  N  N5  1  0.08336066  0.24958347  0.96162963  1
  N  N6  1  0.41667272  0.74963289  0.46230019  1
  N  N7  1  0.91663492  0.75041809  0.03838387  1
  H  H8  1  0.46071140  0.24414211  0.27769929  1
  H  H9  1  0.34198885  0.16290919  0.45727693  1
  H  H10  1  0.34740647  0.33668953  0.45137667  1
  H  H11  1  0.66162938  0.16928018  0.51026699  1
  H  H12  1  0.65723663  0.33162737  0.50713782  1
  H  H13  1  0.55405626  0.25485876  0.67920659  1
  H  H14  1  0.96161580  0.25603743  0.22209826  1
  H  H15  1  0.84761440  0.16343241  0.04900245  1
  H  H16  1  0.84238388  0.33720737  0.04286957  1
  H  H17  1  0.15722521  0.16823543  0.99181710  1
  H  H18  1  0.16191988  0.33058070  0.98877654  1
  H  H19  1  0.05363351  0.24514427  0.82025081  1
  H  H20  1  0.53928730  0.75586085  0.72231304  1
  H  H21  1  0.65259495  0.66331128  0.54864018  1
  H  H22  1  0.65801862  0.83709154  0.54273960  1
  H  H23  1  0.33837935  0.83072591  0.48973884  1
  H  H24  1  0.34276654  0.66837874  0.49286754  1
  H  H25  1  0.44595470  0.74514559  0.32080242  1
  H  H26  1  0.03838265  0.74396735  0.77791649  1
  H  H27  1  0.15238036  0.83657243  0.95101493  1
  H  H28  1  0.15761445  0.66279740  0.95714507  1
  H  H29  1  0.84276912  0.83176542  0.00819658  1
  H  H30  1  0.83807794  0.66942001  0.01123550  1
  H  H31  1  0.94636129  0.75485717  0.17976308  1
  Ca  Ca32  1  0.50000029  0.00000216  0.00000581  1
  Ca  Ca33  1  0.00000169  0.50000195  0.50000612  1
  Os  Os34  1  0.00000101  0.00000149  0.50000647  1
  Os  Os35  1  0.50000022  0.50000178  0.00000530  1
  Cl  Cl36  1  0.49797602  0.26553431  0.95835205  1
  Cl  Cl37  1  0.18992995  0.00403446  0.22293169  1
  Cl  Cl38  1  0.73290028  0.00182444  0.30344319  1
  Cl  Cl39  1  0.99768716  0.23446986  0.54136831  1
  Cl  Cl40  1  0.26710107  0.99817701  0.69656965  1
  Cl  Cl41  1  0.81007237  0.99596963  0.77708178  1
  Cl  Cl42  1  0.50202183  0.73446943  0.04165666  1
  Cl  Cl43  1  0.68993712  0.49593641  0.27700448  1
  Cl  Cl44  1  0.23283204  0.49809952  0.19654377  1
  Cl  Cl45  1  0.00231725  0.76553318  0.45864422  1
  Cl  Cl46  1  0.31006364  0.50406894  0.72300652  1
  Cl  Cl47  1  0.76716932  0.50190271  0.80346781  1
