# generated using pymatgen
data_BaCaH12C2(NCl3)2
_symmetry_space_group_name_H-M   'P 1'
_cell_length_a   8.19088800
_cell_length_b   11.38856923
_cell_length_c   7.51697213
_cell_angle_alpha   89.01155218
_cell_angle_beta   90.00060653
_cell_angle_gamma   89.99255017
_symmetry_Int_Tables_number   1
_chemical_formula_structural   BaCaH12C2(NCl3)2
_chemical_formula_sum   'Ba2 Ca2 H24 C4 N4 Cl12'
_cell_volume   701.09756579
_cell_formula_units_Z   2
loop_
 _symmetry_equiv_pos_site_id
 _symmetry_equiv_pos_as_xyz
  1  'x, y, z'
loop_
 _atom_site_type_symbol
 _atom_site_label
 _atom_site_symmetry_multiplicity
 _atom_site_fract_x
 _atom_site_fract_y
 _atom_site_fract_z
 _atom_site_occupancy
  C  C0  1  0.40535138  0.25061325  0.43380200  1
  C  C1  1  0.90542544  0.24940303  0.06625117  1
  C  C2  1  0.59467572  0.74940413  0.56625348  1
  C  C3  1  0.09468519  0.75064680  0.93379989  1
  N  N4  1  0.56661713  0.24936997  0.52323535  1
  N  N5  1  0.06668580  0.25086624  0.97682314  1
  N  N6  1  0.43340821  0.75060646  0.47682116  1
  N  N7  1  0.93342255  0.74924119  0.02323659  1
  H  H8  1  0.42445205  0.24982444  0.28969510  1
  H  H9  1  0.33958752  0.17124580  0.47504362  1
  H  H10  1  0.33851690  0.32925618  0.47220320  1
  H  H11  1  0.63077728  0.17542162  0.48309866  1
  H  H12  1  0.63368358  0.32379861  0.48640408  1
  H  H13  1  0.55288677  0.24619384  0.66146387  1
  H  H14  1  0.92452902  0.25007117  0.21037984  1
  H  H15  1  0.83871316  0.17077732  0.02768052  1
  H  H16  1  0.83953540  0.32878616  0.02522032  1
  H  H17  1  0.13392859  0.17650913  0.01362104  1
  H  H18  1  0.13067235  0.32489141  0.01701689  1
  H  H19  1  0.05296469  0.25405055  0.83860737  1
  H  H20  1  0.57559562  0.75021622  0.71036133  1
  H  H21  1  0.66156508  0.67077889  0.52786455  1
  H  H22  1  0.66038728  0.82878416  0.52498174  1
  H  H23  1  0.36918932  0.82451227  0.51694252  1
  H  H24  1  0.36639001  0.67613191  0.51363520  1
  H  H25  1  0.44715184  0.75375508  0.33859299  1
  H  H26  1  0.07559309  0.74996100  0.78967590  1
  H  H27  1  0.16141521  0.82927647  0.97235192  1
  H  H28  1  0.16054791  0.67127387  0.97488346  1
  H  H29  1  0.86623650  0.82364989  0.98648874  1
  H  H30  1  0.86936585  0.67527311  0.98301757  1
  H  H31  1  0.94716676  0.74602421  0.16145009  1
  Ca  Ca32  1  0.49978532  0.99992617  0.00012320  1
  Ca  Ca33  1  0.99997331  0.49995196  0.49974194  1
  Ba  Ba34  1  0.99980179  0.99994561  0.50013699  1
  Ba  Ba35  1  0.50008637  0.49996098  0.99966607  1
  Cl  Cl36  1  0.48011319  0.23731220  0.93487744  1
  Cl  Cl37  1  0.20589313  0.01949376  0.16692959  1
  Cl  Cl38  1  0.67386833  0.02445441  0.30888040  1
  Cl  Cl39  1  0.98011635  0.26260047  0.56510729  1
  Cl  Cl40  1  0.32572807  0.97543435  0.69133633  1
  Cl  Cl41  1  0.79369937  0.98049473  0.83332805  1
  Cl  Cl42  1  0.51982750  0.76253850  0.06517019  1
  Cl  Cl43  1  0.70602151  0.48060252  0.33301290  1
  Cl  Cl44  1  0.17415917  0.47568576  0.19101734  1
  Cl  Cl45  1  0.01983470  0.73734301  0.43486528  1
  Cl  Cl46  1  0.29389948  0.51930909  0.66656605  1
  Cl  Cl47  1  0.82609292  0.52441036  0.80863425  1
