# generated using pymatgen
data_CaSnH12C2(NCl3)2
_symmetry_space_group_name_H-M   'P 1'
_cell_length_a   8.13687811
_cell_length_b   11.01757169
_cell_length_c   7.34510639
_cell_angle_alpha   89.89664718
_cell_angle_beta   89.91700174
_cell_angle_gamma   89.97272762
_symmetry_Int_Tables_number   1
_chemical_formula_structural   CaSnH12C2(NCl3)2
_chemical_formula_sum   'Ca2 Sn2 H24 C4 N4 Cl12'
_cell_volume   658.47694756
_cell_formula_units_Z   2
loop_
 _symmetry_equiv_pos_site_id
 _symmetry_equiv_pos_as_xyz
  1  'x, y, z'
loop_
 _atom_site_type_symbol
 _atom_site_label
 _atom_site_symmetry_multiplicity
 _atom_site_fract_x
 _atom_site_fract_y
 _atom_site_fract_z
 _atom_site_occupancy
  C  C0  1  0.42447829  0.24952206  0.45851503  1
  C  C1  1  0.92511555  0.25018788  0.04187039  1
  C  C2  1  0.57510281  0.74949074  0.54226653  1
  C  C3  1  0.07571836  0.75090334  0.95813015  1
  N  N4  1  0.59687740  0.24909731  0.52381339  1
  N  N5  1  0.09739609  0.25057627  0.97558043  1
  N  N6  1  0.40277124  0.74955494  0.47673267  1
  N  N7  1  0.90326635  0.75089093  0.02384748  1
  H  H8  1  0.42555616  0.24973708  0.30963770  1
  H  H9  1  0.36348460  0.16783660  0.50908782  1
  H  H10  1  0.36321313  0.33096855  0.50947375  1
  H  H11  1  0.65833276  0.17318165  0.47414681  1
  H  H12  1  0.65812755  0.32569281  0.47581034  1
  H  H13  1  0.60029223  0.24813049  0.66543225  1
  H  H14  1  0.92641137  0.25005388  0.19077580  1
  H  H15  1  0.86396596  0.16867677  0.99148717  1
  H  H16  1  0.86366318  0.33178004  0.99156096  1
  H  H17  1  0.15978061  0.17468241  0.02427079  1
  H  H18  1  0.15766388  0.32726708  0.02406977  1
  H  H19  1  0.10053831  0.25078249  0.83399616  1
  H  H20  1  0.57391700  0.74986833  0.69116946  1
  H  H21  1  0.63640877  0.66791225  0.49200330  1
  H  H22  1  0.63634351  0.83098580  0.49118000  1
  H  H23  1  0.34233883  0.82618423  0.52540725  1
  H  H24  1  0.34059143  0.67356686  0.52563771  1
  H  H25  1  0.39966461  0.74968782  0.33513054  1
  H  H26  1  0.07486528  0.75060237  0.80924711  1
  H  H27  1  0.13702963  0.83238591  0.00848629  1
  H  H28  1  0.13663031  0.66926394  0.00897528  1
  H  H29  1  0.84204866  0.82750741  0.97580593  1
  H  H30  1  0.84185884  0.67496812  0.97458898  1
  H  H31  1  0.89980064  0.75015486  0.16549367  1
  Ca  Ca32  1  0.50318020  0.99982370  0.00189935  1
  Ca  Ca33  1  0.99543247  0.49944081  0.49759324  1
  Sn  Sn34  1  0.00343999  0.99951432  0.50137590  1
  Sn  Sn35  1  0.49695177  0.49997961  0.99755453  1
  Cl  Cl36  1  0.50006373  0.24551357  0.94643282  1
  Cl  Cl37  1  0.22289662  0.02019888  0.20445905  1
  Cl  Cl38  1  0.71609320  0.01902087  0.28973387  1
  Cl  Cl39  1  0.99692370  0.25375960  0.55371770  1
  Cl  Cl40  1  0.29494977  0.98026910  0.71098403  1
  Cl  Cl41  1  0.78183414  0.98107655  0.79581764  1
  Cl  Cl42  1  0.50204171  0.75400526  0.05474229  1
  Cl  Cl43  1  0.71444584  0.48062173  0.29506612  1
  Cl  Cl44  1  0.20704535  0.48027624  0.20913636  1
  Cl  Cl45  1  0.00031336  0.74526400  0.44524404  1
  Cl  Cl46  1  0.27370817  0.51910821  0.70316019  1
  Cl  Cl47  1  0.78745036  0.52010461  0.78974854  1
