# generated using pymatgen
data_CaInH12C2(NCl3)2
_symmetry_space_group_name_H-M   'P 1'
_cell_length_a   7.90790762
_cell_length_b   11.16729925
_cell_length_c   7.42317831
_cell_angle_alpha   90.13092689
_cell_angle_beta   89.02469078
_cell_angle_gamma   87.48119738
_symmetry_Int_Tables_number   1
_chemical_formula_structural   CaInH12C2(NCl3)2
_chemical_formula_sum   'Ca2 In2 H24 C4 N4 Cl12'
_cell_volume   654.80941204
_cell_formula_units_Z   2
loop_
 _symmetry_equiv_pos_site_id
 _symmetry_equiv_pos_as_xyz
  1  'x, y, z'
loop_
 _atom_site_type_symbol
 _atom_site_label
 _atom_site_symmetry_multiplicity
 _atom_site_fract_x
 _atom_site_fract_y
 _atom_site_fract_z
 _atom_site_occupancy
  C  C0  1  0.41617184  0.25039752  0.41792135  1
  C  C1  1  0.90170833  0.25019785  0.06966494  1
  C  C2  1  0.58387191  0.74963743  0.58207979  1
  C  C3  1  0.09822504  0.74981180  0.93036629  1
  N  N4  1  0.57274572  0.25741671  0.52319844  1
  N  N5  1  0.06627975  0.26064853  0.97419878  1
  N  N6  1  0.42731260  0.74258581  0.47678816  1
  N  N7  1  0.93367230  0.73931352  0.02585270  1
  H  H8  1  0.45000151  0.24779099  0.27435880  1
  H  H9  1  0.35124130  0.16984554  0.45670909  1
  H  H10  1  0.33645721  0.33073254  0.44669910  1
  H  H11  1  0.65565813  0.18615346  0.49072534  1
  H  H12  1  0.63199483  0.33710120  0.49115018  1
  H  H13  1  0.54655508  0.25455849  0.66156281  1
  H  H14  1  0.92469495  0.24709156  0.21432662  1
  H  H15  1  0.84408502  0.16833207  0.02576374  1
  H  H16  1  0.82154294  0.32921651  0.03834520  1
  H  H17  1  0.15059291  0.19178517  0.00956094  1
  H  H18  1  0.11863695  0.34150035  0.01106119  1
  H  H19  1  0.05273893  0.25776951  0.83535771  1
  H  H20  1  0.55002899  0.75222945  0.72563914  1
  H  H21  1  0.66362734  0.66932224  0.55330144  1
  H  H22  1  0.64876522  0.83020817  0.54330819  1
  H  H23  1  0.34437214  0.81383531  0.50924861  1
  H  H24  1  0.36808541  0.66289311  0.50883625  1
  H  H25  1  0.45351000  0.74544605  0.33842469  1
  H  H26  1  0.07521873  0.75293013  0.78570831  1
  H  H27  1  0.15581942  0.83168508  0.97428135  1
  H  H28  1  0.17842681  0.67080449  0.96165180  1
  H  H29  1  0.84931486  0.80815534  0.99052214  1
  H  H30  1  0.88135176  0.65844917  0.98898552  1
  H  H31  1  0.94723306  0.74218661  0.16469205  1
  Ca  Ca32  1  0.49999634  0.00001136  0.99997756  1
  Ca  Ca33  1  0.00001440  0.49998090  0.50001007  1
  In  In34  1  0.00000906  0.99999950  0.50000378  1
  In  In35  1  0.49999035  0.50000394  0.00000649  1
  Cl  Cl36  1  0.47058549  0.22793896  0.93118689  1
  Cl  Cl37  1  0.19032034  0.01781947  0.21196496  1
  Cl  Cl38  1  0.72777220  0.01709432  0.31206165  1
  Cl  Cl39  1  0.98857819  0.22632133  0.55087157  1
  Cl  Cl40  1  0.27225001  0.98289980  0.68794318  1
  Cl  Cl41  1  0.80970877  0.98219979  0.78804970  1
  Cl  Cl42  1  0.52937929  0.77208465  0.06878115  1
  Cl  Cl43  1  0.70245367  0.48817042  0.34356773  1
  Cl  Cl44  1  0.15704993  0.48998570  0.18483118  1
  Cl  Cl45  1  0.01146682  0.77368400  0.44913823  1
  Cl  Cl46  1  0.29756627  0.51186070  0.65644624  1
  Cl  Cl47  1  0.84294160  0.50999171  0.81516551  1
