# generated using pymatgen
data_CaCdH12C2(NCl3)2
_symmetry_space_group_name_H-M   'P 1'
_cell_length_a   7.74532828
_cell_length_b   10.73636439
_cell_length_c   7.33872802
_cell_angle_alpha   90.44067484
_cell_angle_beta   89.98905285
_cell_angle_gamma   90.00190745
_symmetry_Int_Tables_number   1
_chemical_formula_structural   CaCdH12C2(NCl3)2
_chemical_formula_sum   'Ca2 Cd2 H24 C4 N4 Cl12'
_cell_volume   610.24609868
_cell_formula_units_Z   2
loop_
 _symmetry_equiv_pos_site_id
 _symmetry_equiv_pos_as_xyz
  1  'x, y, z'
loop_
 _atom_site_type_symbol
 _atom_site_label
 _atom_site_symmetry_multiplicity
 _atom_site_fract_x
 _atom_site_fract_y
 _atom_site_fract_z
 _atom_site_occupancy
  C  C0  1  0.41444744  0.24925944  0.42461453  1
  C  C1  1  0.91473357  0.25075362  0.07537496  1
  C  C2  1  0.58555214  0.75074325  0.57539800  1
  C  C3  1  0.08527045  0.74925055  0.92463602  1
  N  N4  1  0.57729341  0.25078057  0.52929710  1
  N  N5  1  0.07741210  0.24915156  0.97033006  1
  N  N6  1  0.42270759  0.74922508  0.47071581  1
  N  N7  1  0.92258928  0.75084830  0.02968075  1
  H  H8  1  0.44584042  0.24827867  0.27959915  1
  H  H9  1  0.34127832  0.16642860  0.46058192  1
  H  H10  1  0.34213890  0.33334130  0.45813146  1
  H  H11  1  0.65039958  0.17267827  0.49735500  1
  H  H12  1  0.64856611  0.32879710  0.49444685  1
  H  H13  1  0.55479547  0.25277222  0.66952728  1
  H  H14  1  0.94638577  0.25176068  0.22031370  1
  H  H15  1  0.84230492  0.16670560  0.04206761  1
  H  H16  1  0.84158028  0.33361619  0.03953543  1
  H  H17  1  0.14865609  0.17110716  0.00501498  1
  H  H18  1  0.15064544  0.32721587  0.00209244  1
  H  H19  1  0.05468120  0.24716818  0.83013991  1
  H  H20  1  0.55415929  0.75172436  0.72041346  1
  H  H21  1  0.65785842  0.66666088  0.54188120  1
  H  H22  1  0.65872385  0.83357309  0.53943160  1
  H  H23  1  0.34960276  0.82732878  0.50265721  1
  H  H24  1  0.35143099  0.67120964  0.50556550  1
  H  H25  1  0.44520477  0.74723295  0.33048533  1
  H  H26  1  0.05361761  0.74824526  0.77969858  1
  H  H27  1  0.15769488  0.83329977  0.95794735  1
  H  H28  1  0.15842507  0.66638933  0.96047430  1
  H  H29  1  0.85134345  0.82889235  0.99499828  1
  H  H30  1  0.84935956  0.67278334  0.99791639  1
  H  H31  1  0.94532059  0.75283078  0.16987239  1
  Ca  Ca32  1  0.50000038  0.00000167  0.00000686  1
  Ca  Ca33  1  0.00000091  0.50000148  0.50000621  1
  Cd  Cd34  1  0.99999956  0.00000139  0.50000675  1
  Cd  Cd35  1  0.50000019  0.50000163  0.00000687  1
  Cl  Cl36  1  0.49077303  0.25309804  0.94912854  1
  Cl  Cl37  1  0.19963743  0.00989051  0.20209574  1
  Cl  Cl38  1  0.71065924  0.00896908  0.30406824  1
  Cl  Cl39  1  0.99051837  0.24689893  0.55076245  1
  Cl  Cl40  1  0.28934011  0.99103497  0.69594606  1
  Cl  Cl41  1  0.80036345  0.99011234  0.79791861  1
  Cl  Cl42  1  0.50922935  0.74690528  0.05088466  1
  Cl  Cl43  1  0.69969582  0.49013046  0.29789135  1
  Cl  Cl44  1  0.21063490  0.49095062  0.19585980  1
  Cl  Cl45  1  0.00948146  0.75310394  0.44924972  1
  Cl  Cl46  1  0.30030604  0.50987309  0.70212000  1
  Cl  Cl47  1  0.78936376  0.50905210  0.80415016  1
