# generated using pymatgen
data_CaH12PdC2(NCl3)2
_symmetry_space_group_name_H-M   'P 1'
_cell_length_a   7.34930968
_cell_length_b   12.08024208
_cell_length_c   6.97984616
_cell_angle_alpha   87.61809021
_cell_angle_beta   89.98956193
_cell_angle_gamma   90.02920073
_symmetry_Int_Tables_number   1
_chemical_formula_structural   CaH12PdC2(NCl3)2
_chemical_formula_sum   'Ca2 H24 Pd2 C4 N4 Cl12'
_cell_volume   619.14529693
_cell_formula_units_Z   2
loop_
 _symmetry_equiv_pos_site_id
 _symmetry_equiv_pos_as_xyz
  1  'x, y, z'
loop_
 _atom_site_type_symbol
 _atom_site_label
 _atom_site_symmetry_multiplicity
 _atom_site_fract_x
 _atom_site_fract_y
 _atom_site_fract_z
 _atom_site_occupancy
  C  C0  1  0.40012258  0.25096328  0.41562220  1
  C  C1  1  0.90092884  0.24912008  0.08466272  1
  C  C2  1  0.59987275  0.74903613  0.58438337  1
  C  C3  1  0.09907682  0.75088023  0.91534437  1
  N  N4  1  0.57771120  0.24383506  0.51360955  1
  N  N5  1  0.07823548  0.25600483  0.98599061  1
  N  N6  1  0.42229051  0.75617197  0.48638673  1
  N  N7  1  0.92176596  0.74398199  0.01401134  1
  H  H8  1  0.42351743  0.25649431  0.26096691  1
  H  H9  1  0.32011441  0.17730575  0.45558505  1
  H  H10  1  0.33055973  0.32501922  0.46126158  1
  H  H11  1  0.65023969  0.17452836  0.47471311  1
  H  H12  1  0.65699957  0.31261817  0.48118386  1
  H  H13  1  0.55982067  0.23800163  0.66319757  1
  H  H14  1  0.92477754  0.24362066  0.23922315  1
  H  H15  1  0.83081416  0.17513242  0.03937684  1
  H  H16  1  0.82117528  0.32286345  0.04491472  1
  H  H17  1  0.15729867  0.18714289  0.01822469  1
  H  H18  1  0.15116635  0.32524289  0.02455197  1
  H  H19  1  0.05987339  0.26181389  0.83646876  1
  H  H20  1  0.57647888  0.74350490  0.73903459  1
  H  H21  1  0.66943377  0.67498021  0.53873976  1
  H  H22  1  0.67988772  0.82269377  0.54441886  1
  H  H23  1  0.34975837  0.82547292  0.52528645  1
  H  H24  1  0.34299377  0.68738201  0.51881441  1
  H  H25  1  0.44017962  0.76200230  0.33680560  1
  H  H26  1  0.07522817  0.75638439  0.76078315  1
  H  H27  1  0.16917843  0.82486888  0.96063981  1
  H  H28  1  0.17884099  0.67713897  0.95508248  1
  H  H29  1  0.84269087  0.81283210  0.98179127  1
  H  H30  1  0.84885142  0.67473565  0.97544695  1
  H  H31  1  0.94013198  0.73816811  0.16353869  1
  Ca  Ca32  1  0.50001042  0.00001332  0.00001897  1
  Ca  Ca33  1  -0.00001993  0.50000484  0.50000555  1
  Pd  Pd34  1  0.00001349  0.00003344  0.50004147  1
  Pd  Pd35  1  0.49998778  0.50000225  0.00000128  1
  Cl  Cl36  1  0.48201066  0.21441547  0.93661145  1
  Cl  Cl37  1  0.16116038  0.00577051  0.20795570  1
  Cl  Cl38  1  0.72047250  0.01440248  0.33649761  1
  Cl  Cl39  1  0.98125458  0.28562943  0.56361411  1
  Cl  Cl40  1  0.27956854  0.98562114  0.66356958  1
  Cl  Cl41  1  0.83885166  0.99425910  0.79213788  1
  Cl  Cl42  1  0.51800067  0.78560523  0.06339148  1
  Cl  Cl43  1  0.66112045  0.49418376  0.29205917  1
  Cl  Cl44  1  0.22038935  0.48550981  0.16350460  1
  Cl  Cl45  1  0.01874023  0.71438055  0.43639246  1
  Cl  Cl46  1  0.33884857  0.50581910  0.70795325  1
  Cl  Cl47  1  0.77959934  0.51448640  0.83648097  1
