# generated using pymatgen
data_CaH12RuC2(NCl3)2
_symmetry_space_group_name_H-M   'P 1'
_cell_length_a   7.53899506
_cell_length_b   10.39450806
_cell_length_c   7.28907285
_cell_angle_alpha   91.47141711
_cell_angle_beta   89.99645012
_cell_angle_gamma   90.00236787
_symmetry_Int_Tables_number   1
_chemical_formula_structural   CaH12RuC2(NCl3)2
_chemical_formula_sum   'Ca2 H24 Ru2 C4 N4 Cl12'
_cell_volume   571.01361086
_cell_formula_units_Z   2
loop_
 _symmetry_equiv_pos_site_id
 _symmetry_equiv_pos_as_xyz
  1  'x, y, z'
loop_
 _atom_site_type_symbol
 _atom_site_label
 _atom_site_symmetry_multiplicity
 _atom_site_fract_x
 _atom_site_fract_y
 _atom_site_fract_z
 _atom_site_occupancy
  C  C0  1  0.41031917  0.24903743  0.41733214  1
  C  C1  1  0.91099402  0.25106549  0.08286256  1
  C  C2  1  0.58967958  0.75096601  0.58267912  1
  C  C3  1  0.08900724  0.74893921  0.91714965  1
  N  N4  1  0.57056520  0.25117884  0.53275982  1
  N  N5  1  0.07085493  0.24876261  0.96685697  1
  N  N6  1  0.42943427  0.74882701  0.46725026  1
  N  N7  1  0.92914778  0.75123688  0.03315727  1
  H  H8  1  0.45057414  0.24674808  0.27361461  1
  H  H9  1  0.33116745  0.16507665  0.44910706  1
  H  H10  1  0.33628203  0.33706569  0.44585401  1
  H  H11  1  0.64772240  0.17048777  0.50554017  1
  H  H12  1  0.64524633  0.33140167  0.50336855  1
  H  H13  1  0.53992920  0.25515329  0.67249839  1
  H  H14  1  0.95176369  0.25343143  0.22642798  1
  H  H15  1  0.83675445  0.16306063  0.05477191  1
  H  H16  1  0.83182951  0.33505082  0.05127525  1
  H  H17  1  0.14549458  0.16848586  0.99596686  1
  H  H18  1  0.14822077  0.32938636  0.99375805  1
  H  H19  1  0.03975356  0.24479670  0.82721866  1
  H  H20  1  0.54942354  0.75325573  0.72639645  1
  H  H21  1  0.66371468  0.66293701  0.55415725  1
  H  H22  1  0.66883325  0.83492584  0.55090496  1
  H  H23  1  0.35227917  0.82951898  0.49446953  1
  H  H24  1  0.35475076  0.66860543  0.49664004  1
  H  H25  1  0.46007139  0.74485235  0.32751169  1
  H  H26  1  0.04823582  0.74657485  0.77358499  1
  H  H27  1  0.16324356  0.83694542  0.94524200  1
  H  H28  1  0.16817551  0.66495510  0.94873302  1
  H  H29  1  0.85450361  0.83151193  0.00405050  1
  H  H30  1  0.85178530  0.67061133  0.00625466  1
  H  H31  1  0.96025027  0.75520204  0.17279541  1
  Ca  Ca32  1  0.50000088  0.00000132  0.00000537  1
  Ca  Ca33  1  0.00000212  0.50000139  0.50000825  1
  Ru  Ru34  1  0.99999975  0.00000132  0.50000696  1
  Ru  Ru35  1  0.50000112  0.50000163  0.00000648  1
  Cl  Cl36  1  0.48859099  0.26295345  0.95311921  1
  Cl  Cl37  1  0.19072498  0.00522013  0.21258848  1
  Cl  Cl38  1  0.72127071  0.00113424  0.30604738  1
  Cl  Cl39  1  0.98809916  0.23702386  0.54690139  1
  Cl  Cl40  1  0.27872976  0.99886891  0.69396497  1
  Cl  Cl41  1  0.80927762  0.99478175  0.78742481  1
  Cl  Cl42  1  0.51141170  0.73704954  0.04689272  1
  Cl  Cl43  1  0.69071900  0.49473977  0.28736492  1
  Cl  Cl44  1  0.22121165  0.49885266  0.19392520  1
  Cl  Cl45  1  0.01189985  0.76297894  0.45311251  1
  Cl  Cl46  1  0.30928631  0.50526353  0.71265034  1
  Cl  Cl47  1  0.77879098  0.50115142  0.80608783  1
