# generated using pymatgen
data_SrCaH12C2(NCl3)2
_symmetry_space_group_name_H-M   'P 1'
_cell_length_a   8.16626821
_cell_length_b   11.07576574
_cell_length_c   7.35803604
_cell_angle_alpha   89.81142750
_cell_angle_beta   90.00079986
_cell_angle_gamma   89.99047633
_symmetry_Int_Tables_number   1
_chemical_formula_structural   SrCaH12C2(NCl3)2
_chemical_formula_sum   'Sr2 Ca2 H24 C4 N4 Cl12'
_cell_volume   665.51362876
_cell_formula_units_Z   2
loop_
 _symmetry_equiv_pos_site_id
 _symmetry_equiv_pos_as_xyz
  1  'x, y, z'
loop_
 _atom_site_type_symbol
 _atom_site_label
 _atom_site_symmetry_multiplicity
 _atom_site_fract_x
 _atom_site_fract_y
 _atom_site_fract_z
 _atom_site_occupancy
  C  C0  1  0.42008881  0.25013279  0.45501960  1
  C  C1  1  0.92009441  0.24974896  0.04504170  1
  C  C2  1  0.57993436  0.74986826  0.54505392  1
  C  C3  1  0.07997113  0.75030186  0.95499919  1
  N  N4  1  0.59229543  0.25011916  0.51904564  1
  N  N5  1  0.09229902  0.25026300  0.98102132  1
  N  N6  1  0.40773009  0.74984502  0.48102143  1
  N  N7  1  0.90776892  0.74985095  0.01903156  1
  H  H8  1  0.41991131  0.24975286  0.30634102  1
  H  H9  1  0.35991894  0.16880647  0.50643242  1
  H  H10  1  0.35898019  0.33104795  0.50578111  1
  H  H11  1  0.65247156  0.17413459  0.46928370  1
  H  H12  1  0.65353944  0.32620089  0.47008735  1
  H  H13  1  0.59652075  0.24933992  0.66036671  1
  H  H14  1  0.91991530  0.25000313  0.19372306  1
  H  H15  1  0.85940338  0.16871615  0.99413742  1
  H  H16  1  0.85949784  0.33095861  0.99378137  1
  H  H17  1  0.15390833  0.17431106  0.02990223  1
  H  H18  1  0.15210266  0.32637952  0.03086776  1
  H  H19  1  0.09652744  0.25109816  0.83970307  1
  H  H20  1  0.58011651  0.75024642  0.69373392  1
  H  H21  1  0.64108634  0.66897346  0.49428402  1
  H  H22  1  0.64006508  0.83121366  0.49365632  1
  H  H23  1  0.34750523  0.82580463  0.53079575  1
  H  H24  1  0.34651941  0.67373463  0.52994758  1
  H  H25  1  0.40351459  0.75062673  0.33970074  1
  H  H26  1  0.08015366  0.75000789  0.80631938  1
  H  H27  1  0.14069036  0.83133331  0.00586509  1
  H  H28  1  0.14053953  0.66909515  0.00631077  1
  H  H29  1  0.84622183  0.82585895  0.97023232  1
  H  H30  1  0.84788514  0.67379159  0.96913399  1
  H  H31  1  0.90356749  0.74896301  0.16035522  1
  Ca  Ca32  1  0.49986085  0.99994317  0.00008396  1
  Ca  Ca33  1  0.99996919  0.49993996  0.49975519  1
  Sr  Sr34  1  0.99988346  0.99995269  0.50008261  1
  Sr  Sr35  1  0.50003913  0.49996333  0.99974134  1
  Cl  Cl36  1  0.49632522  0.24402285  0.94236474  1
  Cl  Cl37  1  0.21953690  0.02003823  0.19881269  1
  Cl  Cl38  1  0.70552219  0.02067573  0.29111550  1
  Cl  Cl39  1  0.99634634  0.25590105  0.55759396  1
  Cl  Cl40  1  0.29426401  0.97925669  0.70900018  1
  Cl  Cl41  1  0.78025319  0.97999803  0.80138349  1
  Cl  Cl42  1  0.50362657  0.75586176  0.05763228  1
  Cl  Cl43  1  0.71960011  0.48014416  0.30107825  1
  Cl  Cl44  1  0.20572134  0.47953615  0.20883035  1
  Cl  Cl45  1  0.00362920  0.74402698  0.44236778  1
  Cl  Cl46  1  0.28027277  0.51977357  0.69860530  1
  Cl  Cl47  1  0.79442876  0.52051519  0.79087229  1
