# generated using pymatgen
data_CaGeH12C2(NCl3)2
_symmetry_space_group_name_H-M   'P 1'
_cell_length_a   7.70843139
_cell_length_b   10.82947264
_cell_length_c   7.43162300
_cell_angle_alpha   90.23421475
_cell_angle_beta   90.00050745
_cell_angle_gamma   90.00692816
_symmetry_Int_Tables_number   1
_chemical_formula_structural   CaGeH12C2(NCl3)2
_chemical_formula_sum   'Ca2 Ge2 H24 C4 N4 Cl12'
_cell_volume   620.37367059
_cell_formula_units_Z   2
loop_
 _symmetry_equiv_pos_site_id
 _symmetry_equiv_pos_as_xyz
  1  'x, y, z'
loop_
 _atom_site_type_symbol
 _atom_site_label
 _atom_site_symmetry_multiplicity
 _atom_site_fract_x
 _atom_site_fract_y
 _atom_site_fract_z
 _atom_site_occupancy
  C  C0  1  0.39755210  0.24972364  0.41371738  1
  C  C1  1  0.89842328  0.25038306  0.08701958  1
  C  C2  1  0.60244358  0.75028126  0.58629215  1
  C  C3  1  0.10158279  0.74961851  0.91299375  1
  N  N4  1  0.55568028  0.25009380  0.52600292  1
  N  N5  1  0.05602493  0.24987662  0.97395792  1
  N  N6  1  0.44431512  0.74991230  0.47400741  1
  N  N7  1  0.94398237  0.75012157  0.02605806  1
  H  H8  1  0.43570078  0.24971522  0.27220430  1
  H  H9  1  0.32219524  0.16737639  0.44404564  1
  H  H10  1  0.32349119  0.33290300  0.44372956  1
  H  H11  1  0.62981815  0.17246345  0.49755796  1
  H  H12  1  0.62937902  0.32757099  0.49678452  1
  H  H13  1  0.52637611  0.25091406  0.66318015  1
  H  H14  1  0.93725628  0.25042024  0.22832499  1
  H  H15  1  0.82405699  0.16725173  0.05749442  1
  H  H16  1  0.82305882  0.33278895  0.05703473  1
  H  H17  1  0.12971652  0.17234193  0.00290292  1
  H  H18  1  0.13040469  0.32745202  0.00202696  1
  H  H19  1  0.02613147  0.24903202  0.83692661  1
  H  H20  1  0.56429600  0.75029138  0.72780573  1
  H  H21  1  0.67650245  0.66710073  0.55628065  1
  H  H22  1  0.67780262  0.83262715  0.55596201  1
  H  H23  1  0.37017839  0.82754353  0.50245304  1
  H  H24  1  0.37061498  0.67243609  0.50322562  1
  H  H25  1  0.47361896  0.74909257  0.33683017  1
  H  H26  1  0.06274696  0.74958256  0.77168873  1
  H  H27  1  0.17594751  0.83275036  0.94251981  1
  H  H28  1  0.17694915  0.66721302  0.94297479  1
  H  H29  1  0.87028780  0.82765473  0.99711656  1
  H  H30  1  0.86960459  0.67254541  0.99799000  1
  H  H31  1  0.97387810  0.75096592  0.16308947  1
  Ca  Ca32  1  0.50000156  0.00000262  0.00000736  1
  Ca  Ca33  1  0.99999906  0.50000196  0.50000349  1
  Ge  Ge34  1  0.99999746  0.00000394  0.50001120  1
  Ge  Ge35  1  0.50000202  0.50000153  0.00000309  1
  Cl  Cl36  1  0.47675317  0.25143066  0.94430387  1
  Cl  Cl37  1  0.19219909  0.00898421  0.19085263  1
  Cl  Cl38  1  0.69717453  0.00842496  0.31200435  1
  Cl  Cl39  1  0.97619188  0.24857433  0.55608128  1
  Cl  Cl40  1  0.30282887  0.99158246  0.68801319  1
  Cl  Cl41  1  0.80780820  0.99101826  0.80915932  1
  Cl  Cl42  1  0.52325526  0.74857711  0.05570904  1
  Cl  Cl43  1  0.69217914  0.49095162  0.30909600  1
  Cl  Cl44  1  0.19723294  0.49163360  0.18799858  1
  Cl  Cl45  1  0.02380553  0.75142843  0.44393465  1
  Cl  Cl46  1  0.30781835  0.50905059  0.69090993  1
  Cl  Cl47  1  0.80275942  0.50836781  0.81201008  1
