# generated using pymatgen
data_SiH6CI3N
_symmetry_space_group_name_H-M   'P 1'
_cell_length_a   8.28908465
_cell_length_b   11.68858732
_cell_length_c   8.52287060
_cell_angle_alpha   90.90216689
_cell_angle_beta   90.09912965
_cell_angle_gamma   89.39062681
_symmetry_Int_Tables_number   1
_chemical_formula_structural   SiH6CI3N
_chemical_formula_sum   'Si4 H24 C4 I12 N4'
_cell_volume   825.61117432
_cell_formula_units_Z   4
loop_
 _symmetry_equiv_pos_site_id
 _symmetry_equiv_pos_as_xyz
  1  'x, y, z'
loop_
 _atom_site_type_symbol
 _atom_site_label
 _atom_site_symmetry_multiplicity
 _atom_site_fract_x
 _atom_site_fract_y
 _atom_site_fract_z
 _atom_site_occupancy
  C  C0  1  0.46486984  0.24911485  0.44412839  1
  C  C1  1  0.96429024  0.25114484  0.05472206  1
  C  C2  1  0.53629615  0.75028305  0.55280834  1
  C  C3  1  0.03392816  0.74990153  0.94181907  1
  N  N4  1  0.57016456  0.25079976  0.58530373  1
  N  N5  1  0.07114201  0.25000548  0.91502132  1
  N  N6  1  0.43280351  0.74985981  0.41030037  1
  N  N7  1  0.93177171  0.75120866  0.08489396  1
  H  H8  1  0.54146650  0.24641502  0.33981345  1
  H  H9  1  0.38948793  0.17284696  0.44704839  1
  H  H10  1  0.38949433  0.32662221  0.44535639  1
  H  H11  1  0.64422651  0.17871751  0.58927730  1
  H  H12  1  0.64480910  0.32154293  0.58801779  1
  H  H13  1  0.50537546  0.25323083  0.68989269  1
  H  H14  1  0.03963396  0.25151377  0.16016924  1
  H  H15  1  0.88959699  0.17447978  0.05083208  1
  H  H16  1  0.88838810  0.32832592  0.05229951  1
  H  H17  1  0.14503132  0.17770863  0.91057630  1
  H  H18  1  0.14612309  0.32046099  0.91469310  1
  H  H19  1  0.00750922  0.25064702  0.80950694  1
  H  H20  1  0.45840302  0.75045072  0.65617600  1
  H  H21  1  0.61296211  0.67343997  0.55023555  1
  H  H22  1  0.61025445  0.82732250  0.55273379  1
  H  H23  1  0.35672743  0.82079873  0.40749778  1
  H  H24  1  0.36023018  0.67810495  0.40469046  1
  H  H25  1  0.49917488  0.75000551  0.30670638  1
  H  H26  1  0.95509855  0.74847562  0.83885193  1
  H  H27  1  0.10760756  0.82711027  0.94272777  1
  H  H28  1  0.11095554  0.67326688  0.94266555  1
  H  H29  1  0.85564663  0.82220586  0.08975237  1
  H  H30  1  0.85912593  0.67956158  0.09003323  1
  H  H31  1  0.99887480  0.75290179  0.18834112  1
  Si  Si32  1  0.46634107  0.98693745  0.99486375  1
  Si  Si33  1  0.00800643  0.48598180  0.54068445  1
  Si  Si34  1  0.96833440  0.98647833  0.51106322  1
  Si  Si35  1  0.48849831  0.48836682  0.03754921  1
  I  I36  1  0.50129145  0.25857105  0.00223651  1
  I  I37  1  0.22074900  0.99868267  0.19931368  1
  I  I38  1  0.72225539  0.99859479  0.30269397  1
  I  I39  1  0.00356927  0.25696926  0.50172229  1
  I  I40  1  0.29764449  0.00505929  0.72572280  1
  I  I41  1  0.79744524  0.00499602  0.77613681  1
  I  I42  1  0.50436338  0.75772620  0.99356061  1
  I  I43  1  0.70181140  0.50643313  0.27485647  1
  I  I44  1  0.21623752  0.50375295  0.20405871  1
  I  I45  1  0.00350622  0.75702401  0.49677980  1
  I  I46  1  0.28233162  0.49889664  0.70517869  1
  I  I47  1  0.79616876  0.49713395  0.77698331  1
