# generated using pymatgen
data_CaH12C3(I3N)2
_symmetry_space_group_name_H-M   'P 1'
_cell_length_a   8.44600951
_cell_length_b   12.01700754
_cell_length_c   8.28252912
_cell_angle_alpha   88.64439761
_cell_angle_beta   90.42922245
_cell_angle_gamma   89.74321443
_symmetry_Int_Tables_number   1
_chemical_formula_structural   CaH12C3(I3N)2
_chemical_formula_sum   'Ca2 H24 C6 I12 N4'
_cell_volume   840.37360152
_cell_formula_units_Z   2
loop_
 _symmetry_equiv_pos_site_id
 _symmetry_equiv_pos_as_xyz
  1  'x, y, z'
loop_
 _atom_site_type_symbol
 _atom_site_label
 _atom_site_symmetry_multiplicity
 _atom_site_fract_x
 _atom_site_fract_y
 _atom_site_fract_z
 _atom_site_occupancy
  C  C0  1  0.41719115  0.24922261  0.42670949  1
  C  C1  1  0.92583019  0.25253268  0.07632846  1
  C  C2  1  0.57915807  0.75223133  0.58145029  1
  C  C3  1  0.07817141  0.74872340  0.92137831  1
  N  N4  1  0.55998059  0.24841987  0.53244049  1
  N  N5  1  0.06397390  0.24998922  0.96726120  1
  N  N6  1  0.43364194  0.74952934  0.48030339  1
  N  N7  1  0.93531910  0.74675981  0.02448225  1
  H  H8  1  0.45523772  0.25523194  0.30069625  1
  H  H9  1  0.35301000  0.17120668  0.44713209  1
  H  H10  1  0.34272727  0.32032274  0.45719513  1
  H  H11  1  0.63459503  0.18272216  0.50559528  1
  H  H12  1  0.62696722  0.32014191  0.51670829  1
  H  H13  1  0.53156917  0.24126603  0.65441246  1
  H  H14  1  0.96773447  0.25256246  0.20180581  1
  H  H15  1  0.85528303  0.17808097  0.05592303  1
  H  H16  1  0.85661896  0.32778271  0.04832657  1
  H  H17  1  0.13322241  0.17980184  0.99629297  1
  H  H18  1  0.13230524  0.32054638  0.97956075  1
  H  H19  1  0.03057091  0.24697952  0.84512401  1
  H  H20  1  0.54487829  0.75513777  0.70866832  1
  H  H21  1  0.65038633  0.67780936  0.56052307  1
  H  H22  1  0.64559262  0.82731705  0.54866572  1
  H  H23  1  0.36367343  0.81941851  0.50483294  1
  H  H24  1  0.36737709  0.67939852  0.50829862  1
  H  H25  1  0.45812676  0.74993907  0.35603610  1
  H  H26  1  0.03985235  0.75363832  0.79492313  1
  H  H27  1  0.15019902  0.82075537  0.95151031  1
  H  H28  1  0.14477355  0.67142976  0.94284961  1
  H  H29  1  0.86477080  0.81661421  0.00302059  1
  H  H30  1  0.86732546  0.67693237  0.99753421  1
  H  H31  1  0.96410857  0.74399674  0.14697842  1
  C  C32  1  0.56899627  0.03571221  0.01046531  1
  C  C33  1  0.98671550  0.52530609  0.41757985  1
  Ca  Ca34  1  0.00318636  0.01537966  0.46857592  1
  Ca  Ca35  1  0.53738199  0.51312705  0.99464949  1
  I  I36  1  0.50128653  0.22128431  0.95873936  1
  I  I37  1  0.18252603  0.00399319  0.16828389  1
  I  I38  1  0.66423819  0.01919029  0.27907713  1
  I  I39  1  0.97837884  0.25340311  0.55079756  1
  I  I40  1  0.28328091  0.97528360  0.68357172  1
  I  I41  1  0.77502058  0.99943837  0.84104495  1
  I  I42  1  0.50554291  0.75345570  0.06188573  1
  I  I43  1  0.72495241  0.49335157  0.33154957  1
  I  I44  1  0.15756519  0.49037500  0.21262797  1
  I  I45  1  0.00896811  0.71750248  0.44759322  1
  I  I46  1  0.31445720  0.48574431  0.71849262  1
  I  I47  1  0.83335462  0.51109065  0.81239478  1
