# generated using pymatgen
data_CaGaH12C2(NCl3)2
_symmetry_space_group_name_H-M   'P 1'
_cell_length_a   7.77078103
_cell_length_b   10.93770478
_cell_length_c   7.38443515
_cell_angle_alpha   90.92265145
_cell_angle_beta   90.76449718
_cell_angle_gamma   91.80634718
_symmetry_Int_Tables_number   1
_chemical_formula_structural   CaGaH12C2(NCl3)2
_chemical_formula_sum   'Ca2 Ga2 H24 C4 N4 Cl12'
_cell_volume   627.18297445
_cell_formula_units_Z   2
loop_
 _symmetry_equiv_pos_site_id
 _symmetry_equiv_pos_as_xyz
  1  'x, y, z'
loop_
 _atom_site_type_symbol
 _atom_site_label
 _atom_site_symmetry_multiplicity
 _atom_site_fract_x
 _atom_site_fract_y
 _atom_site_fract_z
 _atom_site_occupancy
  C  C0  1  0.40132103  0.24889279  0.42732078  1
  C  C1  1  0.91728047  0.24992841  0.08430667  1
  C  C2  1  0.59867511  0.75110941  0.57268587  1
  C  C3  1  0.08272371  0.75007483  0.91570709  1
  N  N4  1  0.56589525  0.24083253  0.52864113  1
  N  N5  1  0.07378541  0.23970970  0.97410747  1
  N  N6  1  0.43410063  0.75917324  0.47136795  1
  N  N7  1  0.92622756  0.76028653  0.02591916  1
  H  H8  1  0.42938535  0.25113424  0.28292484  1
  H  H9  1  0.32079552  0.16846599  0.45692787  1
  H  H10  1  0.33939706  0.33265876  0.46883165  1
  H  H11  1  0.62387063  0.15886275  0.49473395  1
  H  H12  1  0.64998047  0.31145157  0.49479108  1
  H  H13  1  0.54806894  0.24587940  0.66769165  1
  H  H14  1  0.95491176  0.25310364  0.22756058  1
  H  H15  1  0.83528558  0.16859130  0.05803037  1
  H  H16  1  0.85065667  0.33240031  0.04722471  1
  H  H17  1  0.13438941  0.15863884  0.00630220  1
  H  H18  1  0.15898708  0.31226235  0.00253131  1
  H  H19  1  0.04443196  0.24007784  0.83569330  1
  H  H20  1  0.57061380  0.74886990  0.71708402  1
  H  H21  1  0.66059596  0.66734471  0.53117424  1
  H  H22  1  0.67920293  0.83153671  0.54307772  1
  H  H23  1  0.37612810  0.84114401  0.50527255  1
  H  H24  1  0.35001066  0.68855578  0.50521949  1
  H  H25  1  0.45192662  0.75412506  0.33231806  1
  H  H26  1  0.04508420  0.74690007  0.77245924  1
  H  H27  1  0.16471506  0.83141556  0.94197992  1
  H  H28  1  0.14935837  0.66760497  0.95278278  1
  H  H29  1  0.86561523  0.84135641  0.99371786  1
  H  H30  1  0.84102618  0.68773167  0.99749246  1
  H  H31  1  0.95557696  0.75992226  0.16432965  1
  Ca  Ca32  1  0.49999933  -0.00000088  0.00000561  1
  Ca  Ca33  1  0.00000255  0.50000126  0.49999128  1
  Ga  Ga34  1  0.00000040  0.00000169  0.50000491  1
  Ga  Ga35  1  0.50000068  0.50000229  0.00000004  1
  Cl  Cl36  1  0.49082234  0.28333835  0.95430044  1
  Cl  Cl37  1  0.20274064  0.00800762  0.17096047  1
  Cl  Cl38  1  0.67118664  0.00566904  0.30990074  1
  Cl  Cl39  1  0.97372679  0.26812739  0.56446918  1
  Cl  Cl40  1  0.32881243  0.99434118  0.69010997  1
  Cl  Cl41  1  0.79725973  0.99198981  0.82905505  1
  Cl  Cl42  1  0.50917864  0.71666660  0.04570958  1
  Cl  Cl43  1  0.68192242  0.48512038  0.27760738  1
  Cl  Cl44  1  0.23996260  0.48710463  0.17984331  1
  Cl  Cl45  1  0.02627110  0.73188238  0.43555934  1
  Cl  Cl46  1  0.31807704  0.51488367  0.72240200  1
  Cl  Cl47  1  0.76003674  0.51290131  0.82016971  1
