# generated using pymatgen
data_CaZnH12C2(NCl3)2
_symmetry_space_group_name_H-M   'P 1'
_cell_length_a   7.60629682
_cell_length_b   10.45775638
_cell_length_c   7.27894818
_cell_angle_alpha   91.35179127
_cell_angle_beta   89.99129174
_cell_angle_gamma   90.00195527
_symmetry_Int_Tables_number   1
_chemical_formula_structural   CaZnH12C2(NCl3)2
_chemical_formula_sum   'Ca2 Zn2 H24 C4 N4 Cl12'
_cell_volume   578.84132277
_cell_formula_units_Z   2
loop_
 _symmetry_equiv_pos_site_id
 _symmetry_equiv_pos_as_xyz
  1  'x, y, z'
loop_
 _atom_site_type_symbol
 _atom_site_label
 _atom_site_symmetry_multiplicity
 _atom_site_fract_x
 _atom_site_fract_y
 _atom_site_fract_z
 _atom_site_occupancy
  C  C0  1  0.41346396  0.24903713  0.42394362  1
  C  C1  1  0.91399752  0.25104169  0.07627598  1
  C  C2  1  0.58653663  0.75096618  0.57606860  1
  C  C3  1  0.08600369  0.74896284  0.92373667  1
  N  N4  1  0.57590429  0.25250267  0.53419297  1
  N  N5  1  0.07610106  0.24744698  0.96545811  1
  N  N6  1  0.42409551  0.74750182  0.46581823  1
  N  N7  1  0.92390090  0.75255318  0.03455582  1
  H  H8  1  0.44917051  0.24789709  0.27879129  1
  H  H9  1  0.33856252  0.16409596  0.45733748  1
  H  H10  1  0.33862012  0.33532172  0.45597732  1
  H  H11  1  0.65249832  0.17267967  0.50469395  1
  H  H12  1  0.64793141  0.33270274  0.50165960  1
  H  H13  1  0.54943979  0.25643156  0.67491265  1
  H  H14  1  0.95018440  0.25223830  0.22130105  1
  H  H15  1  0.83897039  0.16478809  0.04465170  1
  H  H16  1  0.83906681  0.33601391  0.04309740  1
  H  H17  1  0.14811057  0.16719455  0.99769486  1
  H  H18  1  0.15287811  0.32720835  0.99466339  1
  H  H19  1  0.04920807  0.24354575  0.82481686  1
  H  H20  1  0.55082817  0.75210817  0.72122088  1
  H  H21  1  0.66137838  0.66468115  0.54403716  1
  H  H22  1  0.66143887  0.83590675  0.54267395  1
  H  H23  1  0.34750299  0.82732505  0.49531605  1
  H  H24  1  0.35206786  0.66730229  0.49835161  1
  H  H25  1  0.45056146  0.74357187  0.32509873  1
  H  H26  1  0.04981519  0.74776668  0.77871177  1
  H  H27  1  0.16102835  0.83521691  0.95536150  1
  H  H28  1  0.16093714  0.66399108  0.95691262  1
  H  H29  1  0.85188870  0.83280546  0.00232179  1
  H  H30  1  0.84712637  0.67279170  0.00534973  1
  H  H31  1  0.95079509  0.75645395  0.17519709  1
  Ca  Ca32  1  0.50000119  0.00000162  0.00000496  1
  Ca  Ca33  1  0.00000045  0.50000151  0.50000614  1
  Zn  Zn34  1  1.00000032  0.00000206  0.50000466  1
  Zn  Zn35  1  0.50000020  0.50000222  0.00000508  1
  Cl  Cl36  1  0.49083690  0.26191054  0.95578146  1
  Cl  Cl37  1  0.19478898  0.00725669  0.21407072  1
  Cl  Cl38  1  0.72464406  0.00456795  0.30496722  1
  Cl  Cl39  1  0.99047952  0.23808426  0.54423830  1
  Cl  Cl40  1  0.27535706  0.99543550  0.69504505  1
  Cl  Cl41  1  0.80521332  0.99274587  0.78594209  1
  Cl  Cl42  1  0.50916507  0.73809271  0.04423055  1
  Cl  Cl43  1  0.69484759  0.49272892  0.28591910  1
  Cl  Cl44  1  0.22466983  0.49540618  0.19497279  1
  Cl  Cl45  1  0.00952104  0.76191876  0.45577520  1
  Cl  Cl46  1  0.30515372  0.50727465  0.71409342  1
  Cl  Cl47  1  0.77533132  0.50459758  0.80503943  1
