# generated using pymatgen
data_ScTlH12C2(NCl3)2
_symmetry_space_group_name_H-M   'P 1'
_cell_length_a   7.86886066
_cell_length_b   11.14032345
_cell_length_c   7.49847122
_cell_angle_alpha   85.64492959
_cell_angle_beta   89.99238484
_cell_angle_gamma   90.02733839
_symmetry_Int_Tables_number   1
_chemical_formula_structural   ScTlH12C2(NCl3)2
_chemical_formula_sum   'Sc2 Tl2 H24 C4 N4 Cl12'
_cell_volume   655.43033205
_cell_formula_units_Z   2
loop_
 _symmetry_equiv_pos_site_id
 _symmetry_equiv_pos_as_xyz
  1  'x, y, z'
loop_
 _atom_site_type_symbol
 _atom_site_label
 _atom_site_symmetry_multiplicity
 _atom_site_fract_x
 _atom_site_fract_y
 _atom_site_fract_z
 _atom_site_occupancy
  C  C0  1  0.39668254  0.24994506  0.41172652  1
  C  C1  1  0.89752041  0.25006262  0.08913915  1
  C  C2  1  0.60331437  0.75006006  0.58828668  1
  C  C3  1  0.10248492  0.74993891  0.91087203  1
  N  N4  1  0.55287747  0.24661713  0.52244883  1
  N  N5  1  0.05317172  0.25329835  0.97752830  1
  N  N6  1  0.44711864  0.75338893  0.47756431  1
  N  N7  1  0.94683362  0.74670082  0.02248251  1
  H  H8  1  0.43326066  0.25210512  0.27077961  1
  H  H9  1  0.32392575  0.16799918  0.44666958  1
  H  H10  1  0.32311575  0.32951091  0.43849127  1
  H  H11  1  0.62424472  0.17217494  0.49547235  1
  H  H12  1  0.62581221  0.32369773  0.49297797  1
  H  H13  1  0.52461362  0.24023414  0.65922137  1
  H  H14  1  0.93478422  0.24787187  0.22984901  1
  H  H15  1  0.82358538  0.17051720  0.06277302  1
  H  H16  1  0.82482446  0.33204926  0.05465621  1
  H  H17  1  0.12608036  0.17622541  0.00674375  1
  H  H18  1  0.12485429  0.32775708  0.00406552  1
  H  H19  1  0.02434940  0.25964609  0.84093270  1
  H  H20  1  0.56673723  0.74790216  0.72923318  1
  H  H21  1  0.67687888  0.67049272  0.56152309  1
  H  H22  1  0.67607336  0.83200448  0.55334070  1
  H  H23  1  0.37575281  0.82783163  0.50454125  1
  H  H24  1  0.37418317  0.67630877  0.50703545  1
  H  H25  1  0.47538268  0.75977159  0.34079225  1
  H  H26  1  0.06522087  0.75213161  0.77016167  1
  H  H27  1  0.17641946  0.82948410  0.93724054  1
  H  H28  1  0.17518137  0.66795220  0.94535171  1
  H  H29  1  0.87392322  0.82377277  0.99326849  1
  H  H30  1  0.87515317  0.67224113  0.99594472  1
  H  H31  1  0.97565591  0.74035288  0.15907861  1
  Sc  Sc32  1  0.50000264  0.00000189  0.00000788  1
  Sc  Sc33  1  0.99999852  0.50000187  0.50000461  1
  Tl  Tl34  1  0.00000027  0.00000217  0.50000750  1
  Tl  Tl35  1  0.49999984  0.50000256  0.00000366  1
  Cl  Cl36  1  0.47675296  0.22274898  0.93759646  1
  Cl  Cl37  1  0.21738667  0.00340852  0.14793186  1
  Cl  Cl38  1  0.64178714  0.01938087  0.29230773  1
  Cl  Cl39  1  0.97630319  0.27724012  0.56270891  1
  Cl  Cl40  1  0.35821590  0.98062517  0.70770879  1
  Cl  Cl41  1  0.78261893  0.99659298  0.85208480  1
  Cl  Cl42  1  0.52325269  0.77725503  0.06241944  1
  Cl  Cl43  1  0.71755428  0.49645600  0.35185292  1
  Cl  Cl44  1  0.14199563  0.48065327  0.20782849  1
  Cl  Cl45  1  0.02369322  0.72276382  0.43730333  1
  Cl  Cl46  1  0.28244305  0.50354799  0.64815644  1
  Cl  Cl47  1  0.85800218  0.51935019  0.79218142  1
