# generated using pymatgen
data_ScH12AuC2(NCl3)2
_symmetry_space_group_name_H-M   'P 1'
_cell_length_a   7.61939767
_cell_length_b   11.55355767
_cell_length_c   7.30262115
_cell_angle_alpha   85.18473424
_cell_angle_beta   104.14131861
_cell_angle_gamma   89.62692235
_symmetry_Int_Tables_number   1
_chemical_formula_structural   ScH12AuC2(NCl3)2
_chemical_formula_sum   'Sc2 H24 Au2 C4 N4 Cl12'
_cell_volume   620.93392219
_cell_formula_units_Z   2
loop_
 _symmetry_equiv_pos_site_id
 _symmetry_equiv_pos_as_xyz
  1  'x, y, z'
loop_
 _atom_site_type_symbol
 _atom_site_label
 _atom_site_symmetry_multiplicity
 _atom_site_fract_x
 _atom_site_fract_y
 _atom_site_fract_z
 _atom_site_occupancy
  C  C0  1  0.41807229  0.25218042  0.42068962  1
  C  C1  1  0.91459124  0.24865166  0.06589977  1
  C  C2  1  0.58192529  0.74782511  0.57932594  1
  C  C3  1  0.08541453  0.75135010  0.93411265  1
  N  N4  1  0.59787048  0.23978127  0.55673370  1
  N  N5  1  0.08557508  0.26631012  0.00631364  1
  N  N6  1  0.40212987  0.76021942  0.44327921  1
  N  N7  1  0.91442778  0.73369446  0.99369402  1
  H  H8  1  0.43854471  0.25905899  0.27696037  1
  H  H9  1  0.34025501  0.17543754  0.44379467  1
  H  H10  1  0.34948264  0.33036943  0.44584792  1
  H  H11  1  0.66638779  0.16624617  0.53585293  1
  H  H12  1  0.67731138  0.31014396  0.53960682  1
  H  H13  1  0.58177456  0.23181182  0.69551387  1
  H  H14  1  0.94532999  0.23593922  0.22062019  1
  H  H15  1  0.85134102  0.17152459  0.00494084  1
  H  H16  1  0.82645657  0.32570377  0.01612353  1
  H  H17  1  0.17132548  0.19345962  0.05047323  1
  H  H18  1  0.14823988  0.33937567  0.06212024  1
  H  H19  1  0.06318137  0.27858069  0.85871899  1
  H  H20  1  0.56145165  0.74095091  0.72305419  1
  H  H21  1  0.65051942  0.66963480  0.55417539  1
  H  H22  1  0.65974238  0.82456796  0.55621604  1
  H  H23  1  0.33360782  0.83375427  0.46415394  1
  H  H24  1  0.32269066  0.68985527  0.46040853  1
  H  H25  1  0.41822723  0.76818652  0.30449906  1
  H  H26  1  0.05467579  0.76406079  0.77939016  1
  H  H27  1  0.14866362  0.82847824  0.99506763  1
  H  H28  1  0.17354787  0.67429886  0.98389074  1
  H  H29  1  0.82868068  0.80654456  0.94953569  1
  H  H30  1  0.85176283  0.66062848  0.93788934  1
  H  H31  1  0.93682092  0.72142350  0.14129161  1
  Sc  Sc32  1  0.50000142  0.00000128  0.00000737  1
  Sc  Sc33  1  0.99999726  0.50000252  0.50000535  1
  Au  Au34  1  0.00000252  0.00000185  0.50000666  1
  Au  Au35  1  0.49999772  0.50000281  0.00000570  1
  Cl  Cl36  1  0.47066020  0.21089951  0.93290156  1
  Cl  Cl37  1  0.24587273  0.00762884  0.14693146  1
  Cl  Cl38  1  0.69882660  0.02594256  0.33859187  1
  Cl  Cl39  1  0.01649371  0.28757245  0.55905411  1
  Cl  Cl40  1  0.30117820  0.97406070  0.66142197  1
  Cl  Cl41  1  0.75412988  0.99237368  0.85308224  1
  Cl  Cl42  1  0.52934437  0.78910326  0.06711419  1
  Cl  Cl43  1  0.66219469  0.48979360  0.31279633  1
  Cl  Cl44  1  0.13414010  0.49626542  0.23186595  1
  Cl  Cl45  1  0.98350216  0.71243237  0.44095603  1
  Cl  Cl46  1  0.33779918  0.51021143  0.68721561  1
  Cl  Cl47  1  0.86585515  0.50373785  0.76814574  1
