# generated using pymatgen
data_ScInH12C2(NCl3)2
_symmetry_space_group_name_H-M   'P 1'
_cell_length_a   7.91748157
_cell_length_b   11.08225394
_cell_length_c   7.50288267
_cell_angle_alpha   85.23617627
_cell_angle_beta   90.00034674
_cell_angle_gamma   89.99738160
_symmetry_Int_Tables_number   1
_chemical_formula_structural   ScInH12C2(NCl3)2
_chemical_formula_sum   'Sc2 In2 H24 C4 N4 Cl12'
_cell_volume   656.05529160
_cell_formula_units_Z   2
loop_
 _symmetry_equiv_pos_site_id
 _symmetry_equiv_pos_as_xyz
  1  'x, y, z'
loop_
 _atom_site_type_symbol
 _atom_site_label
 _atom_site_symmetry_multiplicity
 _atom_site_fract_x
 _atom_site_fract_y
 _atom_site_fract_z
 _atom_site_occupancy
  C  C0  1  0.42013200  0.25204278  0.41922861  1
  C  C1  1  0.92002432  0.24798923  0.08082288  1
  C  C2  1  0.57999294  0.74798975  0.58075615  1
  C  C3  1  0.07984842  0.75202872  0.91922041  1
  N  N4  1  0.57493470  0.24441996  0.53079477  1
  N  N5  1  0.07484165  0.25554979  0.96928356  1
  N  N6  1  0.42518116  0.75562402  0.46920594  1
  N  N7  1  0.92505283  0.74438132  0.03079293  1
  H  H8  1  0.45753390  0.25530480  0.27863203  1
  H  H9  1  0.34463034  0.17081977  0.45279789  1
  H  H10  1  0.34996112  0.33324810  0.44671161  1
  H  H11  1  0.64235526  0.16759737  0.50678797  1
  H  H12  1  0.65150030  0.31954480  0.49979662  1
  H  H13  1  0.54648048  0.23963525  0.66732973  1
  H  H14  1  0.95742376  0.24474450  0.22142634  1
  H  H15  1  0.84982558  0.16679603  0.05337114  1
  H  H16  1  0.84456167  0.32922888  0.04722171  1
  H  H17  1  0.15135433  0.18039649  0.00029610  1
  H  H18  1  0.14230528  0.33234649  0.99329627  1
  H  H19  1  0.04640520  0.26034322  0.83273569  1
  H  H20  1  0.54260643  0.74470842  0.72135529  1
  H  H21  1  0.65016740  0.66679247  0.55324170  1
  H  H22  1  0.65548687  0.82922081  0.54719984  1
  H  H23  1  0.35777316  0.83245029  0.49323433  1
  H  H24  1  0.34860756  0.68050261  0.50021569  1
  H  H25  1  0.45360840  0.76040758  0.33266895  1
  H  H26  1  0.04242879  0.75530439  0.77862254  1
  H  H27  1  0.15000121  0.83323295  0.94671733  1
  H  H28  1  0.15536804  0.67080678  0.95275591  1
  H  H29  1  0.84846355  0.81949639  -0.00018766  1
  H  H30  1  0.85766118  0.66755189  0.00678561  1
  H  H31  1  0.95351916  0.73959564  0.16733257  1
  Sc  Sc32  1  0.49996687  -0.00000005  0.99998203  1
  Sc  Sc33  1  0.00004491  0.50000090  0.50000077  1
  In  In34  1  0.99998356  0.99999771  0.49999591  1
  In  In35  1  0.49998040  0.49999308  0.00000878  1
  Cl  Cl36  1  0.48717799  0.22481431  0.94241590  1
  Cl  Cl37  1  0.22377724  0.00379518  0.15715681  1
  Cl  Cl38  1  0.65027087  0.01555639  0.28747163  1
  Cl  Cl39  1  0.98733233  0.27518164  0.55758532  1
  Cl  Cl40  1  0.34965507  0.98443138  0.71249265  1
  Cl  Cl41  1  0.77616771  0.99620262  0.84285985  1
  Cl  Cl42  1  0.51270175  0.77518046  0.05753225  1
  Cl  Cl43  1  0.72385379  0.49620147  0.34283543  1
  Cl  Cl44  1  0.15032640  0.48441009  0.21249265  1
  Cl  Cl45  1  0.01279390  0.72481858  0.44241688  1
  Cl  Cl46  1  0.27624327  0.50383127  0.65713237  1
  Cl  Cl47  1  0.84971063  0.51556175  0.78746688  1
