# generated using pymatgen
data_ScAgH12C2(NCl3)2
_symmetry_space_group_name_H-M   'P 1'
_cell_length_a   7.96939638
_cell_length_b   10.02960423
_cell_length_c   7.52843889
_cell_angle_alpha   87.56464752
_cell_angle_beta   90.05129050
_cell_angle_gamma   90.02008681
_symmetry_Int_Tables_number   1
_chemical_formula_structural   ScAgH12C2(NCl3)2
_chemical_formula_sum   'Sc2 Ag2 H24 C4 N4 Cl12'
_cell_volume   601.20353724
_cell_formula_units_Z   2
loop_
 _symmetry_equiv_pos_site_id
 _symmetry_equiv_pos_as_xyz
  1  'x, y, z'
loop_
 _atom_site_type_symbol
 _atom_site_label
 _atom_site_symmetry_multiplicity
 _atom_site_fract_x
 _atom_site_fract_y
 _atom_site_fract_z
 _atom_site_occupancy
  C  C0  1  0.42655154  0.25154694  0.43004633  1
  C  C1  1  0.92704737  0.24854991  0.07008580  1
  C  C2  1  0.57344408  0.74845228  0.56997744  1
  C  C3  1  0.07296180  0.75145857  0.92991520  1
  N  N4  1  0.58211543  0.24358493  0.53762143  1
  N  N5  1  0.08222706  0.25636114  0.96216021  1
  N  N6  1  0.41787930  0.75642403  0.46240365  1
  N  N7  1  0.91778069  0.74363417  0.03783770  1
  H  H8  1  0.46102319  0.25532279  0.28965821  1
  H  H9  1  0.35085208  0.16301862  0.46078836  1
  H  H10  1  0.35850012  0.34143302  0.46277324  1
  H  H11  1  0.64753220  0.15763243  0.51213303  1
  H  H12  1  0.65899651  0.32436484  0.50406464  1
  H  H13  1  0.55686405  0.24363566  0.67322976  1
  H  H14  1  0.96202640  0.24480040  0.21038625  1
  H  H15  1  0.85868393  0.15870054  0.03756034  1
  H  H16  1  0.85142234  0.33712554  0.03945517  1
  H  H17  1  0.15911125  0.17559570  0.99572039  1
  H  H18  1  0.14786845  0.34234121  0.98729845  1
  H  H19  1  0.05651502  0.25618678  0.82661702  1
  H  H20  1  0.53897316  0.74466332  0.71036607  1
  H  H21  1  0.64149486  0.65856919  0.53723657  1
  H  H22  1  0.64914341  0.83698269  0.53924850  1
  H  H23  1  0.35246453  0.84237581  0.48790129  1
  H  H24  1  0.34099684  0.67564346  0.49595383  1
  H  H25  1  0.44313008  0.75638069  0.32679496  1
  H  H26  1  0.03798565  0.75521928  0.78961391  1
  H  H27  1  0.14132111  0.84130687  0.96245442  1
  H  H28  1  0.14858977  0.66288256  0.96053548  1
  H  H29  1  0.84089339  0.82440063  0.00428324  1
  H  H30  1  0.85214280  0.65765533  0.01268581  1
  H  H31  1  0.94348892  0.74380080  0.17338131  1
  Sc  Sc32  1  0.50000556  0.00000440  0.00000636  1
  Sc  Sc33  1  0.00000347  0.49999878  0.50000592  1
  Ag  Ag34  1  0.99995126  0.00001017  0.49990840  1
  Ag  Ag35  1  0.49998880  0.49999242  0.00010591  1
  Cl  Cl36  1  0.49675943  0.25233646  0.95371097  1
  Cl  Cl37  1  0.24378352  0.00814244  0.18591503  1
  Cl  Cl38  1  0.67810357  0.00752946  0.26758145  1
  Cl  Cl39  1  0.99663362  0.24763789  0.54619190  1
  Cl  Cl40  1  0.32191477  0.99248171  0.73245717  1
  Cl  Cl41  1  0.75622518  0.99186453  0.81411518  1
  Cl  Cl42  1  0.50325160  0.74767611  0.04631289  1
  Cl  Cl43  1  0.74363569  0.49176128  0.31374994  1
  Cl  Cl44  1  0.17794180  0.49270588  0.23270664  1
  Cl  Cl45  1  0.00337103  0.75235682  0.45381093  1
  Cl  Cl46  1  0.25636146  0.50823652  0.68624644  1
  Cl  Cl47  1  0.82206565  0.50729330  0.76728346  1
