# generated using pymatgen
data_ScGaH12C2(NCl3)2
_symmetry_space_group_name_H-M   'P 1'
_cell_length_a   7.76975700
_cell_length_b   10.95046252
_cell_length_c   7.44995689
_cell_angle_alpha   85.90501366
_cell_angle_beta   89.99386134
_cell_angle_gamma   90.03575110
_symmetry_Int_Tables_number   1
_chemical_formula_structural   ScGaH12C2(NCl3)2
_chemical_formula_sum   'Sc2 Ga2 H24 C4 N4 Cl12'
_cell_volume   632.24210331
_cell_formula_units_Z   2
loop_
 _symmetry_equiv_pos_site_id
 _symmetry_equiv_pos_as_xyz
  1  'x, y, z'
loop_
 _atom_site_type_symbol
 _atom_site_label
 _atom_site_symmetry_multiplicity
 _atom_site_fract_x
 _atom_site_fract_y
 _atom_site_fract_z
 _atom_site_occupancy
  C  C0  1  0.39724139  0.24939988  0.41209477  1
  C  C1  1  0.89810832  0.25063133  0.08871450  1
  C  C2  1  0.60275498  0.75060514  0.58791800  1
  C  C3  1  0.10189780  0.74937025  0.91129638  1
  N  N4  1  0.55471280  0.24647244  0.52424358  1
  N  N5  1  0.05505699  0.25346281  0.97573764  1
  N  N6  1  0.44528215  0.75353309  0.47576986  1
  N  N7  1  0.94494789  0.74653614  0.02427425  1
  H  H8  1  0.43491197  0.25230737  0.27052951  1
  H  H9  1  0.32330396  0.16618689  0.44621733  1
  H  H10  1  0.32271159  0.33021673  0.43919048  1
  H  H11  1  0.62758284  0.17065342  0.49875087  1
  H  H12  1  0.62863826  0.32449353  0.49372849  1
  H  H13  1  0.52559330  0.24141653  0.66154128  1
  H  H14  1  0.93646612  0.24771119  0.23006802  1
  H  H15  1  0.82318210  0.16982579  0.06206016  1
  H  H16  1  0.82426761  0.33387198  0.05503001  1
  H  H17  1  0.12890249  0.17545431  0.00596744  1
  H  H18  1  0.12823948  0.32929470  0.00075375  1
  H  H19  1  0.02533390  0.25847492  0.83858763  1
  H  H20  1  0.56508492  0.74770019  0.72948302  1
  H  H21  1  0.67728321  0.66978734  0.56082386  1
  H  H22  1  0.67669397  0.83381722  0.55379255  1
  H  H23  1  0.37241369  0.82935168  0.50126143  1
  H  H24  1  0.37135727  0.67551196  0.50628472  1
  H  H25  1  0.47440282  0.75858843  0.33847146  1
  H  H26  1  0.06353997  0.75229227  0.76994366  1
  H  H27  1  0.17682299  0.83017605  0.93795406  1
  H  H28  1  0.17573943  0.66612998  0.94497915  1
  H  H29  1  0.87110176  0.82454337  0.99404546  1
  H  H30  1  0.87176892  0.67070352  0.99925650  1
  H  H31  1  0.97467158  0.74152370  0.16142364  1
  Sc  Sc32  1  0.50000266  0.00000220  0.00000795  1
  Sc  Sc33  1  0.99999824  0.50000188  0.50000396  1
  Ga  Ga34  1  0.99999959  0.00000263  0.50000816  1
  Ga  Ga35  1  0.50000146  0.50000302  0.00000173  1
  Cl  Cl36  1  0.47758315  0.22703669  0.94192925  1
  Cl  Cl37  1  0.21883508  0.00203946  0.16095655  1
  Cl  Cl38  1  0.65331355  0.01605340  0.29034936  1
  Cl  Cl39  1  0.97704172  0.27295662  0.55841056  1
  Cl  Cl40  1  0.34668958  0.98395321  0.70966801  1
  Cl  Cl41  1  0.78117088  0.99796236  0.83905990  1
  Cl  Cl42  1  0.52242365  0.77296806  0.05808675  1
  Cl  Cl43  1  0.71898667  0.49783656  0.33885046  1
  Cl  Cl44  1  0.15351297  0.48398929  0.20979306  1
  Cl  Cl45  1  0.02295389  0.72704720  0.44160205  1
  Cl  Cl46  1  0.28100986  0.50216719  0.66115832  1
  Cl  Cl47  1  0.84648434  0.51601433  0.79021708  1
