# generated using pymatgen
data_ScZnH12C2(NCl3)2
_symmetry_space_group_name_H-M   'P 1'
_cell_length_a   7.90743461
_cell_length_b   11.09240707
_cell_length_c   7.56109765
_cell_angle_alpha   86.47886719
_cell_angle_beta   90.82780340
_cell_angle_gamma   89.78263200
_symmetry_Int_Tables_number   1
_chemical_formula_structural   ScZnH12C2(NCl3)2
_chemical_formula_sum   'Sc2 Zn2 H24 C4 N4 Cl12'
_cell_volume   661.87430011
_cell_formula_units_Z   2
loop_
 _symmetry_equiv_pos_site_id
 _symmetry_equiv_pos_as_xyz
  1  'x, y, z'
loop_
 _atom_site_type_symbol
 _atom_site_label
 _atom_site_symmetry_multiplicity
 _atom_site_fract_x
 _atom_site_fract_y
 _atom_site_fract_z
 _atom_site_occupancy
  C  C0  1  0.43690297  0.24667713  0.41809926  1
  C  C1  1  0.91098912  0.23166629  0.10451942  1
  C  C2  1  0.58397094  0.75409470  0.56521068  1
  C  C3  1  0.06422788  0.76111932  0.91409979  1
  N  N4  1  0.59777275  0.22049960  0.51754751  1
  N  N5  1  0.06691552  0.24402387  0.99836454  1
  N  N6  1  0.42528666  0.79329748  0.47078126  1
  N  N7  1  0.91744170  0.76015266  0.03427733  1
  H  H8  1  0.46332490  0.25057182  0.27633235  1
  H  H9  1  0.34734240  0.17414741  0.45123193  1
  H  H10  1  0.38692375  0.33330239  0.45561352  1
  H  H11  1  0.64633441  0.13761885  0.48540045  1
  H  H12  1  0.68640739  0.28672047  0.48565775  1
  H  H13  1  0.57926983  0.21860551  0.65357188  1
  H  H14  1  0.94850162  0.21880614  0.24449922  1
  H  H15  1  0.84152488  0.15285823  0.06410054  1
  H  H16  1  0.83484297  0.31371286  0.08145802  1
  H  H17  1  0.14264674  0.16678949  0.02142638  1
  H  H18  1  0.13388868  0.31826494  0.03854947  1
  H  H19  1  0.04154248  0.25613767  0.86273310  1
  H  H20  1  0.55917169  0.74304262  0.70722718  1
  H  H21  1  0.62487828  0.66838354  0.51557452  1
  H  H22  1  0.68002592  0.82371284  0.53993540  1
  H  H23  1  0.38610033  0.87654986  0.51282790  1
  H  H24  1  0.32743273  0.73301504  0.49489275  1
  H  H25  1  0.44245597  0.80074003  0.33474662  1
  H  H26  1  0.01720933  0.76585338  0.77698503  1
  H  H27  1  0.13987054  0.84104413  0.93675687  1
  H  H28  1  0.13888520  0.67898420  0.94330831  1
  H  H29  1  0.84930500  0.84038821  0.01146336  1
  H  H30  1  0.83696367  0.68960577  0.01027924  1
  H  H31  1  0.95450707  0.75055717  0.16734022  1
  Sc  Sc32  1  0.49568490  0.96866973  0.99875015  1
  Sc  Sc33  1  0.96326961  0.50247535  0.55307714  1
  Zn  Zn34  1  0.99452453  0.99481188  0.49955368  1
  Zn  Zn35  1  0.38511478  0.44299989  0.91433551  1
  Cl  Cl36  1  0.51314775  0.26640120  0.92346154  1
  Cl  Cl37  1  0.23383762  0.00630918  0.15374032  1
  Cl  Cl38  1  0.64774123  0.00433111  0.27155988  1
  Cl  Cl39  1  0.02584022  0.29139026  0.57691353  1
  Cl  Cl40  1  0.34468464  0.00457886  0.71952697  1
  Cl  Cl41  1  0.76096711  0.99802871  0.84262233  1
  Cl  Cl42  1  0.49965226  0.75338976  0.04812573  1
  Cl  Cl43  1  0.73912141  0.48098293  0.34641039  1
  Cl  Cl44  1  0.24070978  0.48364289  0.14936789  1
  Cl  Cl45  1  0.03006431  0.70306287  0.43424518  1
  Cl  Cl46  1  0.29649006  0.52730432  0.65500133  1
  Cl  Cl47  1  0.81631020  0.52075570  0.81879322  1
