# generated using pymatgen
data_ScCuH12C2(NCl3)2
_symmetry_space_group_name_H-M   'P 1'
_cell_length_a   7.83202246
_cell_length_b   9.23226937
_cell_length_c   7.87357629
_cell_angle_alpha   88.75571293
_cell_angle_beta   90.00316530
_cell_angle_gamma   89.99485745
_symmetry_Int_Tables_number   1
_chemical_formula_structural   ScCuH12C2(NCl3)2
_chemical_formula_sum   'Sc2 Cu2 H24 C4 N4 Cl12'
_cell_volume   569.18311637
_cell_formula_units_Z   2
loop_
 _symmetry_equiv_pos_site_id
 _symmetry_equiv_pos_as_xyz
  1  'x, y, z'
loop_
 _atom_site_type_symbol
 _atom_site_label
 _atom_site_symmetry_multiplicity
 _atom_site_fract_x
 _atom_site_fract_y
 _atom_site_fract_z
 _atom_site_occupancy
  C  C0  1  0.47071005  0.25122215  0.42894674  1
  C  C1  1  0.97064536  0.24876963  0.07106284  1
  C  C2  1  0.52736868  0.75004045  0.57112924  1
  C  C3  1  0.02747625  0.74996772  0.92889623  1
  N  N4  1  0.55302320  0.25443683  0.59724319  1
  N  N5  1  0.05296983  0.24555560  0.90278172  1
  N  N6  1  0.43929266  0.74215776  0.40599343  1
  N  N7  1  0.93933634  0.75784837  0.09398976  1
  H  H8  1  0.56935315  0.24966217  0.33164481  1
  H  H9  1  0.39287588  0.15336479  0.42208785  1
  H  H10  1  0.38992732  0.34676632  0.41229686  1
  H  H11  1  0.62910093  0.16424980  0.62219625  1
  H  H12  1  0.63067401  0.34450825  0.61259247  1
  H  H13  1  0.46429368  0.25663807  0.69439347  1
  H  H14  1  0.06928550  0.25031878  0.16838369  1
  H  H15  1  0.88987383  0.15324154  0.08769528  1
  H  H16  1  0.89280837  0.34664301  0.07791408  1
  H  H17  1  0.13062552  0.15546975  0.88742875  1
  H  H18  1  0.12904912  0.33572580  0.87785953  1
  H  H19  1  0.96425220  0.24338368  0.80560825  1
  H  H20  1  0.43192649  0.75188137  0.67164648  1
  H  H21  1  0.60859963  0.65485246  0.58766305  1
  H  H22  1  0.60558842  0.84798506  0.57243827  1
  H  H23  1  0.36229071  0.83159318  0.38101485  1
  H  H24  1  0.36143687  0.65160091  0.39610806  1
  H  H25  1  0.52452999  0.73901527  0.30595251  1
  H  H26  1  0.93206908  0.74816423  0.82832966  1
  H  H27  1  0.10872127  0.84513118  0.91242068  1
  H  H28  1  0.10568174  0.65199831  0.92760756  1
  H  H29  1  0.86149676  0.84843212  0.10386639  1
  H  H30  1  0.86230329  0.66844095  0.11889561  1
  H  H31  1  0.02453064  0.76093454  0.19408223  1
  Sc  Sc32  1  0.50019179  0.99811121  0.00295136  1
  Sc  Sc33  1  1.00018301  0.50190094  0.49706911  1
  Cu  Cu34  1  0.10672346  0.00660030  0.48917629  1
  Cu  Cu35  1  0.60671700  0.49340729  0.01083435  1
  Cl  Cl36  1  0.47520762  0.27311769  0.00301839  1
  Cl  Cl37  1  0.23677837  0.98968328  0.19898633  1
  Cl  Cl38  1  0.68241594  0.98698161  0.24917610  1
  Cl  Cl39  1  0.97517956  0.22690254  0.49700002  1
  Cl  Cl40  1  0.29673048  0.01230861  0.74223146  1
  Cl  Cl41  1  0.74415747  0.00983374  0.81539983  1
  Cl  Cl42  1  0.49677395  0.72439222  0.99797235  1
  Cl  Cl43  1  0.73676826  0.51036222  0.30102731  1
  Cl  Cl44  1  0.18240069  0.51297784  0.25085318  1
  Cl  Cl45  1  0.99678967  0.77562796  0.50201820  1
  Cl  Cl46  1  0.24415291  0.49012479  0.68463187  1
  Cl  Cl47  1  0.79673676  0.48774596  0.75778066  1
