# generated using pymatgen
data_TiHgH12C2(NCl3)2
_symmetry_space_group_name_H-M   'P 1'
_cell_length_a   7.77931656
_cell_length_b   11.22209321
_cell_length_c   7.58866070
_cell_angle_alpha   81.75852255
_cell_angle_beta   89.98616915
_cell_angle_gamma   90.04876200
_symmetry_Int_Tables_number   1
_chemical_formula_structural   TiHgH12C2(NCl3)2
_chemical_formula_sum   'Ti2 Hg2 H24 C4 N4 Cl12'
_cell_volume   655.64969532
_cell_formula_units_Z   2
loop_
 _symmetry_equiv_pos_site_id
 _symmetry_equiv_pos_as_xyz
  1  'x, y, z'
loop_
 _atom_site_type_symbol
 _atom_site_label
 _atom_site_symmetry_multiplicity
 _atom_site_fract_x
 _atom_site_fract_y
 _atom_site_fract_z
 _atom_site_occupancy
  C  C0  1  0.40160607  0.24839722  0.40726209  1
  C  C1  1  0.90230517  0.25158115  0.09328594  1
  C  C2  1  0.59839029  0.75160713  0.59275108  1
  C  C3  1  0.09770146  0.74842113  0.90672465  1
  N  N4  1  0.56041124  0.24282615  0.51702854  1
  N  N5  1  0.06072206  0.25715418  0.98281665  1
  N  N6  1  0.43958456  0.75717916  0.48298541  1
  N  N7  1  0.93928317  0.74284605  0.01719219  1
  H  H8  1  0.43823999  0.25573120  0.26686771  1
  H  H9  1  0.32696841  0.16612957  0.44605872  1
  H  H10  1  0.32793910  0.32722498  0.43135930  1
  H  H11  1  0.63536635  0.17026418  0.49623715  1
  H  H12  1  0.63268310  0.32129685  0.48555685  1
  H  H13  1  0.53182297  0.23344026  0.65305657  1
  H  H14  1  0.93942285  0.24423390  0.23351677  1
  H  H15  1  0.82828682  0.17275513  0.06950153  1
  H  H16  1  0.82780524  0.33385658  0.05483499  1
  H  H17  1  0.13286988  0.17869095  0.01402668  1
  H  H18  1  0.13600112  0.32972427  0.00322824  1
  H  H19  1  0.03167821  0.26650608  0.84692069  1
  H  H20  1  0.56175799  0.74427457  0.73314539  1
  H  H21  1  0.67205529  0.67277825  0.56865408  1
  H  H22  1  0.67302976  0.83387382  0.55395222  1
  H  H23  1  0.36463032  0.82974184  0.50377738  1
  H  H24  1  0.36731151  0.67870895  0.51445772  1
  H  H25  1  0.46817204  0.76656482  0.34695778  1
  H  H26  1  0.06058407  0.75576956  0.76649300  1
  H  H27  1  0.17171870  0.82724689  0.93051081  1
  H  H28  1  0.17220163  0.66614572  0.94517374  1
  H  H29  1  0.86713481  0.82130904  0.98598349  1
  H  H30  1  0.86400649  0.67027588  0.99677929  1
  H  H31  1  0.96832649  0.73349378  0.15308923  1
  Ti  Ti32  1  0.50000275  0.00000170  0.00000843  1
  Ti  Ti33  1  0.99999815  0.50000187  0.50000533  1
  Hg  Hg34  1  0.00000246  0.00000124  0.50000890  1
  Hg  Hg35  1  0.49999838  0.50000244  0.00000492  1
  Cl  Cl36  1  0.47994288  0.21224824  0.93159110  1
  Cl  Cl37  1  0.22248565  0.99536602  0.12595414  1
  Cl  Cl38  1  0.61783825  0.01743764  0.27872645  1
  Cl  Cl39  1  0.97937951  0.28775797  0.56848861  1
  Cl  Cl40  1  0.38216649  0.98256795  0.72128997  1
  Cl  Cl41  1  0.77751939  0.00463561  0.87406251  1
  Cl  Cl42  1  0.52006317  0.78775539  0.06842569  1
  Cl  Cl43  1  0.72272084  0.50459640  0.37360870  1
  Cl  Cl44  1  0.11832330  0.48264104  0.22145911  1
  Cl  Cl45  1  0.02061596  0.71224565  0.43152252  1
  Cl  Cl46  1  0.27727574  0.49540745  0.62640201  1
  Cl  Cl47  1  0.88167363  0.51736242  0.77855230  1
