# generated using pymatgen
data_SiH12C3(I3N)2
_symmetry_space_group_name_H-M   'P 1'
_cell_length_a   8.43089953
_cell_length_b   11.58742035
_cell_length_c   8.29857871
_cell_angle_alpha   89.77187804
_cell_angle_beta   90.20654887
_cell_angle_gamma   90.06214775
_symmetry_Int_Tables_number   1
_chemical_formula_structural   SiH12C3(I3N)2
_chemical_formula_sum   'Si2 H24 C6 I12 N4'
_cell_volume   810.69572056
_cell_formula_units_Z   2
loop_
 _symmetry_equiv_pos_site_id
 _symmetry_equiv_pos_as_xyz
  1  'x, y, z'
loop_
 _atom_site_type_symbol
 _atom_site_label
 _atom_site_symmetry_multiplicity
 _atom_site_fract_x
 _atom_site_fract_y
 _atom_site_fract_z
 _atom_site_occupancy
  C  C0  1  0.42431568  0.24933751  0.43438975  1
  C  C1  1  0.92639708  0.24899744  0.07408057  1
  C  C2  1  0.58058384  0.75112288  0.57205095  1
  C  C3  1  0.06811609  0.74294315  0.92518648  1
  N  N4  1  0.56754929  0.25198651  0.53898711  1
  N  N5  1  0.06749360  0.24943251  0.96777755  1
  N  N6  1  0.43874906  0.75258724  0.46566753  1
  N  N7  1  0.92822346  0.74660551  0.03284923  1
  H  H8  1  0.46192014  0.24794578  0.30822310  1
  H  H9  1  0.35656052  0.17124083  0.46208656  1
  H  H10  1  0.35248123  0.32590847  0.45811224  1
  H  H11  1  0.63868393  0.18078055  0.51453050  1
  H  H12  1  0.63564429  0.32497527  0.51794741  1
  H  H13  1  0.53895846  0.25026055  0.66140395  1
  H  H14  1  0.96639067  0.24744868  0.19970502  1
  H  H15  1  0.85518057  0.17247986  0.04762908  1
  H  H16  1  0.85747589  0.32720374  0.05063175  1
  H  H17  1  0.13866361  0.17806829  0.99132138  1
  H  H18  1  0.13621639  0.32215682  0.98787376  1
  H  H19  1  0.03679958  0.24806243  0.84562678  1
  H  H20  1  0.54101450  0.75043606  0.69747276  1
  H  H21  1  0.64928169  0.67340297  0.54673136  1
  H  H22  1  0.65119203  0.82837302  0.54789956  1
  H  H23  1  0.36783368  0.82316136  0.49084775  1
  H  H24  1  0.36986505  0.67950995  0.48517482  1
  H  H25  1  0.46795434  0.75627842  0.34362642  1
  H  H26  1  0.02699325  0.73879043  0.80011796  1
  H  H27  1  0.13775926  0.82142725  0.94366327  1
  H  H28  1  0.13882546  0.66673204  0.95502167  1
  H  H29  1  0.85744454  0.81723830  0.00515114  1
  H  H30  1  0.85929537  0.67301244  0.01799844  1
  H  H31  1  0.96075526  0.75213375  0.15423843  1
  C  C32  1  0.43470658  0.96840065  0.99689105  1
  C  C33  1  0.98740541  0.53326717  0.41537251  1
  Si  Si34  1  0.96520460  0.01492437  0.52885041  1
  Si  Si35  1  0.51205633  0.49082637  0.95006125  1
  I  I36  1  0.49804568  0.26200342  0.96694671  1
  I  I37  1  0.23538235  0.99890995  0.17923286  1
  I  I38  1  0.72398928  0.01326773  0.31980562  1
  I  I39  1  0.99796539  0.24278441  0.54392776  1
  I  I40  1  0.31647345  0.98297407  0.74645013  1
  I  I41  1  0.80478267  0.99519959  0.79829850  1
  I  I42  1  0.49432569  0.77587337  0.03461711  1
  I  I43  1  0.74396144  0.50966392  0.29587356  1
  I  I44  1  0.17830153  0.49786512  0.22517587  1
  I  I45  1  0.01100729  0.72989653  0.45247049  1
  I  I46  1  0.30753245  0.50858938  0.70823642  1
  I  I47  1  0.78426578  0.50559219  0.79406204  1
