# generated using pymatgen
data_TiH12PtC2(NCl3)2
_symmetry_space_group_name_H-M   'P 1'
_cell_length_a   7.09198691
_cell_length_b   8.87958911
_cell_length_c   9.31151372
_cell_angle_alpha   89.33275819
_cell_angle_beta   89.98454232
_cell_angle_gamma   89.99884745
_symmetry_Int_Tables_number   1
_chemical_formula_structural   TiH12PtC2(NCl3)2
_chemical_formula_sum   'Ti2 H24 Pt2 C4 N4 Cl12'
_cell_volume   586.34282701
_cell_formula_units_Z   2
loop_
 _symmetry_equiv_pos_site_id
 _symmetry_equiv_pos_as_xyz
  1  'x, y, z'
loop_
 _atom_site_type_symbol
 _atom_site_label
 _atom_site_symmetry_multiplicity
 _atom_site_fract_x
 _atom_site_fract_y
 _atom_site_fract_z
 _atom_site_occupancy
  C  C0  1  0.48470298  0.21428851  0.42022511  1
  C  C1  1  0.98913513  0.28584035  0.08052016  1
  C  C2  1  0.51073217  0.78557994  0.58026802  1
  C  C3  1  0.01538168  0.71427183  0.92043714  1
  N  N4  1  0.56160911  0.19399065  0.56714330  1
  N  N5  1  0.05853555  0.30221719  0.93102509  1
  N  N6  1  0.44123043  0.80282383  0.43090157  1
  N  N7  1  0.93846711  0.69379567  0.06736135  1
  H  H8  1  0.60235332  0.22147540  0.34494864  1
  H  H9  1  0.39312755  0.11935961  0.39390169  1
  H  H10  1  0.40193519  0.31784956  0.41533887  1
  H  H11  1  0.67314950  0.11751719  0.56905203  1
  H  H12  1  0.61862312  0.29413773  0.60586377  1
  H  H13  1  0.46062593  0.15805408  0.64133943  1
  H  H14  1  0.11004081  0.28618312  0.15288334  1
  H  H15  1  0.91268607  0.17967501  0.09173916  1
  H  H16  1  0.89360612  0.37875101  0.10544232  1
  H  H17  1  0.11893210  0.20235269  0.89419443  1
  H  H18  1  0.16508146  0.38207257  0.92263520  1
  H  H19  1  0.95269824  0.33200996  0.85858772  1
  H  H20  1  0.38980948  0.78468245  0.65267309  1
  H  H21  1  0.58803831  0.67973147  0.59064993  1
  H  H22  1  0.60544795  0.87877333  0.60589927  1
  H  H23  1  0.33413466  0.88232998  0.42319603  1
  H  H24  1  0.38138723  0.70299728  0.39349973  1
  H  H25  1  0.54684773  0.83351693  0.35855419  1
  H  H26  1  0.89771301  0.72188185  0.84525458  1
  H  H27  1  0.09847990  0.81766757  0.91570733  1
  H  H28  1  0.10661032  0.61920648  0.89383018  1
  H  H29  1  0.88161523  0.79394331  0.10624215  1
  H  H30  1  0.82677882  0.61743905  0.06917747  1
  H  H31  1  0.03939198  0.65763483  0.14147002  1
  Ti  Ti32  1  0.50161355  0.00483556  0.00275187  1
  Ti  Ti33  1  0.99848876  0.50477210  0.50299249  1
  Pt  Pt34  1  0.99874462  0.00323184  0.50215523  1
  Pt  Pt35  1  0.50173132  0.50341551  0.00213993  1
  Cl  Cl36  1  0.48466269  0.26138381  0.06822838  1
  Cl  Cl37  1  0.24563350  0.95336562  0.15198980  1
  Cl  Cl38  1  0.71159285  0.95936072  0.19919289  1
  Cl  Cl39  1  0.98050539  0.24359479  0.42764146  1
  Cl  Cl40  1  0.29200905  0.04106100  0.80278090  1
  Cl  Cl41  1  0.75677974  0.04736926  0.84981705  1
  Cl  Cl42  1  0.51976639  0.74375543  0.92756525  1
  Cl  Cl43  1  0.74337875  0.54709900  0.35002370  1
  Cl  Cl44  1  0.20827868  0.54122627  0.30303425  1
  Cl  Cl45  1  0.01507817  0.76126010  0.56841931  1
  Cl  Cl46  1  0.25436684  0.45306797  0.65218969  1
  Cl  Cl47  1  0.78848523  0.45922886  0.69941209  1
