# generated using pymatgen
data_BaFeH12C2(NCl3)2
_symmetry_space_group_name_H-M   'P 1'
_cell_length_a   7.73495080
_cell_length_b   10.74222027
_cell_length_c   7.33931993
_cell_angle_alpha   86.80182241
_cell_angle_beta   89.99741235
_cell_angle_gamma   90.01515377
_symmetry_Int_Tables_number   1
_chemical_formula_structural   BaFeH12C2(NCl3)2
_chemical_formula_sum   'Ba2 Fe2 H24 C4 N4 Cl12'
_cell_volume   608.87828843
_cell_formula_units_Z   2
loop_
 _symmetry_equiv_pos_site_id
 _symmetry_equiv_pos_as_xyz
  1  'x, y, z'
loop_
 _atom_site_type_symbol
 _atom_site_label
 _atom_site_symmetry_multiplicity
 _atom_site_fract_x
 _atom_site_fract_y
 _atom_site_fract_z
 _atom_site_occupancy
  C  C0  1  0.40050870  0.25136790  0.41439025  1
  C  C1  1  0.90123453  0.24864298  0.08624055  1
  C  C2  1  0.59948931  0.74863631  0.58562257  1
  C  C3  1  0.09876945  0.75135972  0.91377054  1
  N  N4  1  0.55943106  0.24597485  0.52591561  1
  N  N5  1  0.05965145  0.25395988  0.97390837  1
  N  N6  1  0.44056671  0.75403070  0.47409765  1
  N  N7  1  0.94035288  0.74603997  0.02610316  1
  H  H8  1  0.43658036  0.25102843  0.27036020  1
  H  H9  1  0.32691788  0.16665729  0.44806808  1
  H  H10  1  0.32563632  0.33372326  0.44409509  1
  H  H11  1  0.62852515  0.16778439  0.49317731  1
  H  H12  1  0.63620669  0.32428962  0.49730105  1
  H  H13  1  0.53186460  0.23812078  0.66580406  1
  H  H14  1  0.93800209  0.24889944  0.23007780  1
  H  H15  1  0.82602380  0.16634457  0.05685933  1
  H  H16  1  0.82768785  0.33342347  0.05311178  1
  H  H17  1  0.13644833  0.17565832  0.00228017  1
  H  H18  1  0.12897323  0.33217166  0.00615188  1
  H  H19  1  0.03149863  0.26173997  0.83414453  1
  H  H20  1  0.56341830  0.74897761  0.72965260  1
  H  H21  1  0.67435938  0.66627954  0.55591875  1
  H  H22  1  0.67308250  0.83334547  0.55194269  1
  H  H23  1  0.37147430  0.83222195  0.50683603  1
  H  H24  1  0.36378983  0.67571663  0.50271208  1
  H  H25  1  0.46813321  0.76188445  0.33420913  1
  H  H26  1  0.06200149  0.75110509  0.76993325  1
  H  H27  1  0.17397942  0.83365797  0.94315406  1
  H  H28  1  0.17231706  0.66657913  0.94689609  1
  H  H29  1  0.86355381  0.82434049  0.99773212  1
  H  H30  1  0.87103349  0.66782720  0.99385895  1
  H  H31  1  0.96850582  0.73825995  0.16586694  1
  Fe  Fe32  1  0.50000162  0.00000191  0.00000844  1
  Fe  Fe33  1  0.99999936  0.50000178  0.50000647  1
  Ba  Ba34  1  -0.00000002  0.00000188  0.50000652  1
  Ba  Ba35  1  0.50000016  0.50000233  0.00000567  1
  Cl  Cl36  1  0.48138903  0.22039433  0.94620732  1
  Cl  Cl37  1  0.23113941  0.00378674  0.16355998  1
  Cl  Cl38  1  0.65846217  0.01344358  0.28502477  1
  Cl  Cl39  1  0.98093607  0.27961454  0.55401826  1
  Cl  Cl40  1  0.34153801  0.98656135  0.71498856  1
  Cl  Cl41  1  0.76886357  0.99621538  0.83645508  1
  Cl  Cl42  1  0.51861468  0.77960979  0.05380754  1
  Cl  Cl43  1  0.73129350  0.49617034  0.33627174  1
  Cl  Cl44  1  0.15860976  0.48657701  0.21504374  1
  Cl  Cl45  1  0.01906229  0.72038888  0.44599427  1
  Cl  Cl46  1  0.26870631  0.50383319  0.66373955  1
  Cl  Cl47  1  0.84139017  0.51342628  0.78496604  1
