# generated using pymatgen
data_TlCoH12C2(NCl3)2
_symmetry_space_group_name_H-M   'P 1'
_cell_length_a   7.73513341
_cell_length_b   10.71966416
_cell_length_c   7.32658745
_cell_angle_alpha   85.07487188
_cell_angle_beta   89.98923184
_cell_angle_gamma   90.02152056
_symmetry_Int_Tables_number   1
_chemical_formula_structural   TlCoH12C2(NCl3)2
_chemical_formula_sum   'Tl2 Co2 H24 C4 N4 Cl12'
_cell_volume   605.26308657
_cell_formula_units_Z   2
loop_
 _symmetry_equiv_pos_site_id
 _symmetry_equiv_pos_as_xyz
  1  'x, y, z'
loop_
 _atom_site_type_symbol
 _atom_site_label
 _atom_site_symmetry_multiplicity
 _atom_site_fract_x
 _atom_site_fract_y
 _atom_site_fract_z
 _atom_site_occupancy
  C  C0  1  0.40614742  0.25007863  0.41499705  1
  C  C1  1  0.90671190  0.24991812  0.08537306  1
  C  C2  1  0.59385110  0.74992466  0.58501499  1
  C  C3  1  0.09329191  0.75008492  0.91463780  1
  N  N4  1  0.56629549  0.24223429  0.52558802  1
  N  N5  1  0.06650835  0.25766859  0.97414078  1
  N  N6  1  0.43370196  0.75777099  0.47442598  1
  N  N7  1  0.93349602  0.74233198  0.02587076  1
  H  H8  1  0.44108366  0.25244811  0.27021455  1
  H  H9  1  0.32994885  0.16591733  0.45116295  1
  H  H10  1  0.33413826  0.33335418  0.44457572  1
  H  H11  1  0.63542073  0.16420400  0.49571726  1
  H  H12  1  0.64356777  0.32088964  0.49543344  1
  H  H13  1  0.53950195  0.23334421  0.66620242  1
  H  H14  1  0.94214176  0.24747876  0.23001538  1
  H  H15  1  0.83436744  0.16670389  0.05604052  1
  H  H16  1  0.83064071  0.33415125  0.04961124  1
  H  H17  1  0.14373670  0.17901428  0.00412936  1
  H  H18  1  0.13588526  0.33571213  0.00358696  1
  H  H19  1  0.03929817  0.26648654  0.83363446  1
  H  H20  1  0.55891637  0.74755702  0.72979825  1
  H  H21  1  0.66585767  0.66664866  0.55543686  1
  H  H22  1  0.67005109  0.83408535  0.54884703  1
  H  H23  1  0.36457854  0.83580126  0.50429734  1
  H  H24  1  0.35642825  0.67911556  0.50458145  1
  H  H25  1  0.46049432  0.76666033  0.33381137  1
  H  H26  1  0.05786142  0.75252584  0.76999561  1
  H  H27  1  0.16563528  0.83329968  0.94397200  1
  H  H28  1  0.16936476  0.66585246  0.95039699  1
  H  H29  1  0.85626566  0.82098494  0.99588357  1
  H  H30  1  0.86412135  0.66428720  0.99642375  1
  H  H31  1  0.96070661  0.73351367  0.16637708  1
  Co  Co32  1  0.50000153  0.00000187  0.00000679  1
  Co  Co33  1  0.99999965  0.50000176  0.50000582  1
  Tl  Tl34  1  0.99999923  0.00000204  0.50000585  1
  Tl  Tl35  1  0.50000061  0.50000225  0.00000623  1
  Cl  Cl36  1  0.48606184  0.21194367  0.94719836  1
  Cl  Cl37  1  0.24379801  0.00174102  0.15527730  1
  Cl  Cl38  1  0.64623854  0.01160994  0.26911601  1
  Cl  Cl39  1  0.98567697  0.28804490  0.55288363  1
  Cl  Cl40  1  0.35376372  0.98839483  0.73089788  1
  Cl  Cl41  1  0.75620508  0.99826170  0.84473672  1
  Cl  Cl42  1  0.51394174  0.78806015  0.05281606  1
  Cl  Cl43  1  0.74390917  0.49824336  0.34459074  1
  Cl  Cl44  1  0.14640972  0.48840006  0.23091775  1
  Cl  Cl45  1  0.01432162  0.71195854  0.44712871  1
  Cl  Cl46  1  0.25609010  0.50176006  0.65542100  1
  Cl  Cl47  1  0.85358944  0.51160367  0.76909376  1
