# generated using pymatgen
data_InCoH12C2(NCl3)2
_symmetry_space_group_name_H-M   'P 1'
_cell_length_a   7.09170900
_cell_length_b   10.29005537
_cell_length_c   7.75576472
_cell_angle_alpha   84.32148007
_cell_angle_beta   90.00128066
_cell_angle_gamma   89.99647103
_symmetry_Int_Tables_number   1
_chemical_formula_structural   InCoH12C2(NCl3)2
_chemical_formula_sum   'In2 Co2 H24 C4 N4 Cl12'
_cell_volume   563.19241643
_cell_formula_units_Z   2
loop_
 _symmetry_equiv_pos_site_id
 _symmetry_equiv_pos_as_xyz
  1  'x, y, z'
loop_
 _atom_site_type_symbol
 _atom_site_label
 _atom_site_symmetry_multiplicity
 _atom_site_fract_x
 _atom_site_fract_y
 _atom_site_fract_z
 _atom_site_occupancy
  C  C0  1  0.48816772  0.23682078  0.41739033  1
  C  C1  1  0.98809395  0.26314561  0.08264442  1
  C  C2  1  0.51024599  0.76248980  0.57999339  1
  C  C3  1  0.01031125  0.73754628  0.91999023  1
  N  N4  1  0.54626698  0.25905057  0.59474022  1
  N  N5  1  0.04628946  0.24099093  0.90529564  1
  N  N6  1  0.45451844  0.74140629  0.40163215  1
  N  N7  1  0.95452317  0.75855988  0.09835809  1
  H  H8  1  0.61335203  0.23736449  0.33577043  1
  H  H9  1  0.41788386  0.14209419  0.42054764  1
  H  H10  1  0.39147369  0.31487973  0.36944827  1
  H  H11  1  0.62370023  0.18097540  0.65399992  1
  H  H12  1  0.62817297  0.34258800  0.59825238  1
  H  H13  1  0.43197497  0.27024692  0.67391516  1
  H  H14  1  0.11322392  0.26253870  0.16433857  1
  H  H15  1  0.89135558  0.18508311  0.13046333  1
  H  H16  1  0.91782421  0.35788030  0.07952911  1
  H  H17  1  0.12814170  0.15742542  0.90174982  1
  H  H18  1  0.12382637  0.31906028  0.84616211  1
  H  H19  1  0.93206029  0.22991288  0.82601651  1
  H  H20  1  0.38375320  0.76203510  0.65998647  1
  H  H21  1  0.60565983  0.68382851  0.62849452  1
  H  H22  1  0.58119938  0.85686478  0.57856267  1
  H  H23  1  0.37822287  0.81991207  0.34209104  1
  H  H24  1  0.37257205  0.65801506  0.39612125  1
  H  H25  1  0.57001488  0.73043826  0.32375907  1
  H  H26  1  0.88386247  0.73805367  0.83994216  1
  H  H27  1  0.10576041  0.81621161  0.87159060  1
  H  H28  1  0.08126088  0.64316438  0.92137918  1
  H  H29  1  0.87259104  0.84196626  0.10389890  1
  H  H30  1  0.87816103  0.68005142  0.15780357  1
  H  H31  1  0.06996480  0.76944886  0.17630132  1
  Co  Co32  1  0.50034205  0.00007251  0.99873808  1
  Co  Co33  1  0.00034501  0.49993124  0.50127783  1
  In  In34  1  0.00053403  0.99987172  0.50068769  1
  In  In35  1  0.50055079  0.50013199  0.99932928  1
  Cl  Cl36  1  0.49573458  0.22449178  -0.00060142  1
  Cl  Cl37  1  0.24842111  0.98467531  0.18710737  1
  Cl  Cl38  1  0.70259161  0.98324801  0.23308938  1
  Cl  Cl39  1  0.99576059  0.27551870  0.50066486  1
  Cl  Cl40  1  0.29785871  0.01701440  0.76462352  1
  Cl  Cl41  1  0.75215669  0.01581241  0.81023469  1
  Cl  Cl42  1  0.50514322  0.77557938  0.99769450  1
  Cl  Cl43  1  0.74841577  0.51530689  0.31289813  1
  Cl  Cl44  1  0.20258754  0.51671539  0.26692186  1
  Cl  Cl45  1  0.00511723  0.72441847  0.50227309  1
  Cl  Cl46  1  0.25216835  0.48421739  0.68979180  1
  Cl  Cl47  1  0.79786685  0.48302317  0.73539747  1
