# generated using pymatgen
data_HfNiH12C2(NCl3)2
_symmetry_space_group_name_H-M   'P 1'
_cell_length_a   8.37331089
_cell_length_b   8.72251090
_cell_length_c   7.96181239
_cell_angle_alpha   90.31575443
_cell_angle_beta   92.37963194
_cell_angle_gamma   89.48227505
_symmetry_Int_Tables_number   1
_chemical_formula_structural   HfNiH12C2(NCl3)2
_chemical_formula_sum   'Hf2 Ni2 H24 C4 N4 Cl12'
_cell_volume   580.96843227
_cell_formula_units_Z   2
loop_
 _symmetry_equiv_pos_site_id
 _symmetry_equiv_pos_as_xyz
  1  'x, y, z'
loop_
 _atom_site_type_symbol
 _atom_site_label
 _atom_site_symmetry_multiplicity
 _atom_site_fract_x
 _atom_site_fract_y
 _atom_site_fract_z
 _atom_site_occupancy
  C  C0  1  0.45417935  0.24015965  0.45422964  1
  C  C1  1  0.96037007  0.25471757  0.05221789  1
  C  C2  1  0.55426449  0.76229836  0.54992813  1
  C  C3  1  0.04888328  0.74139031  0.95307706  1
  N  N4  1  0.59595714  0.25539577  0.57017429  1
  N  N5  1  0.09811685  0.24403371  0.94195217  1
  N  N6  1  0.40711877  0.73834844  0.44363076  1
  N  N7  1  0.91062844  0.76332686  0.06141208  1
  H  H8  1  0.49313029  0.23213805  0.32525300  1
  H  H9  1  0.39029717  0.13693485  0.48703007  1
  H  H10  1  0.37568287  0.33938342  0.46936482  1
  H  H11  1  0.67137470  0.16140428  0.56066650  1
  H  H12  1  0.66480514  0.35068436  0.54337684  1
  H  H13  1  0.56479090  0.26242741  0.69462194  1
  H  H14  1  0.00448138  0.27005904  0.18217082  1
  H  H15  1  0.88973308  0.15061665  0.03953376  1
  H  H16  1  0.88671991  0.35270941  0.01234010  1
  H  H17  1  0.17003637  0.14758567  0.96611955  1
  H  H18  1  0.17206893  0.33747829  0.96153041  1
  H  H19  1  0.06300796  0.24175562  0.81549197  1
  H  H20  1  0.52181621  0.77547973  0.68082055  1
  H  H21  1  0.63444563  0.66377018  0.53618746  1
  H  H22  1  0.61293828  0.86513345  0.50679488  1
  H  H23  1  0.32786832  0.82939658  0.45435338  1
  H  H24  1  0.34712996  0.64148062  0.47883647  1
  H  H25  1  0.43096199  0.72877628  0.31730793  1
  H  H26  1  0.00506386  0.73016137  0.82260053  1
  H  H27  1  0.12849846  0.83963176  0.96811015  1
  H  H28  1  0.11309254  0.63793728  0.99356307  1
  H  H29  1  0.84906621  0.86369474  0.03412391  1
  H  H30  1  0.82991755  0.67506634  0.04096239  1
  H  H31  1  0.94440717  0.76474674  0.18814813  1
  Ni  Ni32  1  0.41512422  0.99898165  0.90394011  1
  Ni  Ni33  1  0.89481069  0.49103214  0.42442899  1
  Hf  Hf34  1  0.00325805  0.99935914  0.50445315  1
  Hf  Hf35  1  0.50576668  0.50108951  0.00327346  1
  Cl  Cl36  1  0.51625697  0.21782482  0.98020907  1
  Cl  Cl37  1  0.17967285  1.00049458  0.26465155  1
  Cl  Cl38  1  0.76699436  0.02098384  0.31321882  1
  Cl  Cl39  1  0.01021199  0.28500437  0.52806097  1
  Cl  Cl40  1  0.24279621  0.98200901  0.69548535  1
  Cl  Cl41  1  0.82815977  0.99756933  0.74632927  1
  Cl  Cl42  1  0.49500152  0.78632500  0.03263806  1
  Cl  Cl43  1  0.68964949  0.49353366  0.25242865  1
  Cl  Cl44  1  0.27538479  0.48237550  0.18619265  1
  Cl  Cl45  1  0.99873230  0.71610855  0.48168647  1
  Cl  Cl46  1  0.32137255  0.50826094  0.75486626  1
  Cl  Cl47  1  0.73597801  0.52100346  0.82250311  1
