# generated using pymatgen
data_ZnNiH12C2(NCl3)2
_symmetry_space_group_name_H-M   'P 1'
_cell_length_a   7.13313166
_cell_length_b   10.35357321
_cell_length_c   7.90935742
_cell_angle_alpha   86.31029754
_cell_angle_beta   89.99280278
_cell_angle_gamma   90.00154628
_symmetry_Int_Tables_number   1
_chemical_formula_structural   ZnNiH12C2(NCl3)2
_chemical_formula_sum   'Zn2 Ni2 H24 C4 N4 Cl12'
_cell_volume   582.92214837
_cell_formula_units_Z   2
loop_
 _symmetry_equiv_pos_site_id
 _symmetry_equiv_pos_as_xyz
  1  'x, y, z'
loop_
 _atom_site_type_symbol
 _atom_site_label
 _atom_site_symmetry_multiplicity
 _atom_site_fract_x
 _atom_site_fract_y
 _atom_site_fract_z
 _atom_site_occupancy
  C  C0  1  0.44168098  0.25211845  0.36916786  1
  C  C1  1  0.90900169  0.25186041  0.13697792  1
  C  C2  1  0.59105846  0.75185645  0.63710525  1
  C  C3  1  0.05837163  0.75213275  0.86930955  1
  N  N4  1  0.54806896  0.24361610  0.53016046  1
  N  N5  1  0.00339907  0.26204873  0.97052098  1
  N  N6  1  0.49654398  0.76210335  0.47072450  1
  N  N7  1  0.95191478  0.74354767  0.03029217  1
  H  H8  1  0.54111688  0.26190300  0.26415085  1
  H  H9  1  0.35916685  0.16398329  0.36069173  1
  H  H10  1  0.35002661  0.33665522  0.36688106  1
  H  H11  1  0.63843236  0.16488799  0.53497629  1
  H  H12  1  0.62990361  0.32632988  0.53722683  1
  H  H13  1  0.46154492  0.23355558  0.63539572  1
  H  H14  1  0.01561194  0.24568543  0.23646780  1
  H  H15  1  0.82234807  0.16490512  0.14407496  1
  H  H16  1  0.82558458  0.33914249  0.14968586  1
  H  H17  1  0.09634034  0.18650332  0.95906333  1
  H  H18  1  0.08017895  0.34707459  0.96001246  1
  H  H19  1  0.91254296  0.26341458  0.86863302  1
  H  H20  1  0.48450160  0.74568829  0.73668112  1
  H  H21  1  0.67764552  0.66487714  0.64410714  1
  H  H22  1  0.67454214  0.83910639  0.64978444  1
  H  H23  1  0.41979419  0.84714788  0.46033132  1
  H  H24  1  0.40356192  0.68658374  0.45930262  1
  H  H25  1  0.58733160  0.76349043  0.36876224  1
  H  H26  1  0.95897555  0.76187609  0.76427996  1
  H  H27  1  0.14993148  0.83671937  0.86705506  1
  H  H28  1  0.14098492  0.66404496  0.86082399  1
  H  H29  1  0.86999546  0.82622171  0.03737562  1
  H  H30  1  0.86161813  0.66478216  0.03507722  1
  H  H31  1  0.03839120  0.73351293  0.13553866  1
  Ni  Ni32  1  0.48080276  0.00082432  0.01785344  1
  Ni  Ni33  1  0.01920162  0.50083959  0.51779940  1
  Zn  Zn34  1  0.05942919  0.94962058  0.42170302  1
  Zn  Zn35  1  0.44054273  0.44958459  0.92169055  1
  Cl  Cl36  1  0.43873926  0.21173132  0.92884801  1
  Cl  Cl37  1  0.19861600  0.99762452  0.14630624  1
  Cl  Cl38  1  0.76238638  0.99794122  0.38552893  1
  Cl  Cl39  1  0.99431828  0.29471860  0.57228023  1
  Cl  Cl40  1  0.26138951  0.99712173  0.61713345  1
  Cl  Cl41  1  0.74675029  0.00678923  0.88515271  1
  Cl  Cl42  1  0.50569714  0.79471679  0.07246502  1
  Cl  Cl43  1  0.75328877  0.50685099  0.38508542  1
  Cl  Cl44  1  0.23850852  0.49706188  0.11710304  1
  Cl  Cl45  1  0.06129384  0.71176342  0.42893482  1
  Cl  Cl46  1  0.30135576  0.49760002  0.64628374  1
  Cl  Cl47  1  0.73759235  0.49791397  0.88549054  1
