# generated using pymatgen
data_CuBiH12C2(NCl3)2
_symmetry_space_group_name_H-M   'P 1'
_cell_length_a   8.13202824
_cell_length_b   9.96328300
_cell_length_c   7.58173544
_cell_angle_alpha   89.54106766
_cell_angle_beta   90.21944866
_cell_angle_gamma   89.99329613
_symmetry_Int_Tables_number   1
_chemical_formula_structural   CuBiH12C2(NCl3)2
_chemical_formula_sum   'Cu2 Bi2 H24 C4 N4 Cl12'
_cell_volume   614.26086702
_cell_formula_units_Z   2
loop_
 _symmetry_equiv_pos_site_id
 _symmetry_equiv_pos_as_xyz
  1  'x, y, z'
loop_
 _atom_site_type_symbol
 _atom_site_label
 _atom_site_symmetry_multiplicity
 _atom_site_fract_x
 _atom_site_fract_y
 _atom_site_fract_z
 _atom_site_occupancy
  C  C0  1  0.44192209  0.25186463  0.43996420  1
  C  C1  1  0.94217402  0.24775920  0.05954617  1
  C  C2  1  0.55807348  0.74812789  0.56005125  1
  C  C3  1  0.05782288  0.75225261  0.94047108  1
  N  N4  1  0.59698186  0.24993276  0.54311327  1
  N  N5  1  0.09668719  0.24976818  0.95671344  1
  N  N6  1  0.40300906  0.75007601  0.45691219  1
  N  N7  1  0.90331049  0.75023664  0.04330068  1
  H  H8  1  0.47310454  0.24914361  0.30010774  1
  H  H9  1  0.37083329  0.16284939  0.47507576  1
  H  H10  1  0.37347956  0.34281177  0.47068063  1
  H  H11  1  0.66541297  0.16675331  0.50774375  1
  H  H12  1  0.66701153  0.33433559  0.51611299  1
  H  H13  1  0.57567404  0.24431735  0.67803567  1
  H  H14  1  0.97411014  0.25050600  0.19945071  1
  H  H15  1  0.87368639  0.15678230  0.02865538  1
  H  H16  1  0.87080691  0.33672389  0.02420529  1
  H  H17  1  0.16691025  0.16537318  0.98379277  1
  H  H18  1  0.16522354  0.33296792  0.99229709  1
  H  H19  1  0.07468798  0.25540189  0.82172526  1
  H  H20  1  0.52689664  0.75082696  0.69991016  1
  H  H21  1  0.62652239  0.65718900  0.52930913  1
  H  H22  1  0.62915794  0.83715077  0.52496358  1
  H  H23  1  0.33458614  0.83325403  0.49229507  1
  H  H24  1  0.33298427  0.66566739  0.48391272  1
  H  H25  1  0.42431400  0.75570739  0.32198888  1
  H  H26  1  0.02589079  0.74950178  0.80056447  1
  H  H27  1  0.12630861  0.84323067  0.97136024  1
  H  H28  1  0.12919634  0.66329072  0.97580889  1
  H  H29  1  0.83309041  0.83463354  0.01620769  1
  H  H30  1  0.83477453  0.66703485  0.00771416  1
  H  H31  1  0.92530673  0.74460331  0.17828910  1
  Cu  Cu32  1  0.50009820  0.99994963  0.99929049  1
  Cu  Cu33  1  0.00093165  0.49999751  0.50005801  1
  Bi  Bi34  1  0.99999272  0.99998150  0.50004863  1
  Bi  Bi35  1  0.49998503  0.50001907  0.00001925  1
  Cl  Cl36  1  0.50351399  0.22214047  0.95977243  1
  Cl  Cl37  1  0.21060352  0.00609658  0.22381947  1
  Cl  Cl38  1  0.72852511  0.01036935  0.29024223  1
  Cl  Cl39  1  0.00358884  0.27786494  0.53979467  1
  Cl  Cl40  1  0.27170267  0.98964615  0.70999020  1
  Cl  Cl41  1  0.78909874  0.99388590  0.77643622  1
  Cl  Cl42  1  0.49644724  0.77791687  0.04034156  1
  Cl  Cl43  1  0.71176838  0.49337717  0.27715791  1
  Cl  Cl44  1  0.22918634  0.48988211  0.20882795  1
  Cl  Cl45  1  0.99620974  0.72209862  0.46025363  1
  Cl  Cl46  1  0.28785209  0.50664748  0.72258238  1
  Cl  Cl47  1  0.77056848  0.51013042  0.79138213  1
