# generated using pymatgen
data_CuH12IrC2(NCl3)2
_symmetry_space_group_name_H-M   'P 1'
_cell_length_a   8.01162382
_cell_length_b   8.39858344
_cell_length_c   8.43848603
_cell_angle_alpha   94.70927843
_cell_angle_beta   89.77645168
_cell_angle_gamma   90.07349472
_symmetry_Int_Tables_number   1
_chemical_formula_structural   CuH12IrC2(NCl3)2
_chemical_formula_sum   'Cu2 H24 Ir2 C4 N4 Cl12'
_cell_volume   565.87304237
_cell_formula_units_Z   2
loop_
 _symmetry_equiv_pos_site_id
 _symmetry_equiv_pos_as_xyz
  1  'x, y, z'
loop_
 _atom_site_type_symbol
 _atom_site_label
 _atom_site_symmetry_multiplicity
 _atom_site_fract_x
 _atom_site_fract_y
 _atom_site_fract_z
 _atom_site_occupancy
  C  C0  1  0.46046461  0.26630918  0.43821612  1
  C  C1  1  0.97188858  0.23361742  0.06504314  1
  C  C2  1  0.53057405  0.73575748  0.56938843  1
  C  C3  1  0.04002339  0.77228475  0.93577321  1
  N  N4  1  0.54477742  0.24067257  0.58957505  1
  N  N5  1  0.05306523  0.26399688  0.91309926  1
  N  N6  1  0.44326516  0.76282084  0.42028436  1
  N  N7  1  0.95679935  0.73524962  0.08520736  1
  H  H8  1  0.55418764  0.27420883  0.34518769  1
  H  H9  1  0.37726037  0.16538671  0.40743821  1
  H  H10  1  0.38637618  0.37557152  0.45371525  1
  H  H11  1  0.62592150  0.14450591  0.57803968  1
  H  H12  1  0.61472139  0.33789766  0.63638313  1
  H  H13  1  0.45752192  0.21942565  0.67619490  1
  H  H14  1  0.06650366  0.23021408  0.15736125  1
  H  H15  1  0.90510286  0.11982134  0.05154892  1
  H  H16  1  0.88151352  0.32867274  0.09540945  1
  H  H17  1  0.11983277  0.16648385  0.86116986  1
  H  H18  1  0.13747257  0.35836897  0.92386394  1
  H  H19  1  0.96509612  0.29179188  0.83022668  1
  H  H20  1  0.43959653  0.73255772  0.66567626  1
  H  H21  1  0.59877981  0.62290540  0.55500895  1
  H  H22  1  0.62033648  0.83235222  0.59455125  1
  H  H23  1  0.35946758  0.85730153  0.43365033  1
  H  H24  1  0.37491834  0.66476766  0.37264977  1
  H  H25  1  0.52774713  0.78931062  0.33305882  1
  H  H26  1  0.94566119  0.78410949  0.84478094  1
  H  H27  1  0.11203666  0.88230250  0.95742799  1
  H  H28  1  0.12485225  0.67452783  0.89791552  1
  H  H29  1  0.88859260  0.83010339  0.14023436  1
  H  H30  1  0.87444503  0.64068224  0.06583819  1
  H  H31  1  0.04479897  0.70500415  0.16715783  1
  Cu  Cu32  1  0.60477837  0.98456632  0.90800377  1
  Cu  Cu33  1  0.89400731  0.48382061  0.40694768  1
  Ir  Ir34  1  0.99346030  0.99553547  0.50199727  1
  Ir  Ir35  1  0.50624176  0.49698441  0.00445524  1
  Cl  Cl36  1  0.48796862  0.21227886  0.01178984  1
  Cl  Cl37  1  0.17470702  0.97895396  0.28408334  1
  Cl  Cl38  1  0.76168938  0.98853663  0.32927852  1
  Cl  Cl39  1  0.00797914  0.28259633  0.51715316  1
  Cl  Cl40  1  0.22973926  0.00659105  0.67463976  1
  Cl  Cl41  1  0.81139254  0.02803556  0.73443666  1
  Cl  Cl42  1  0.49343021  0.78395794  0.02219152  1
  Cl  Cl43  1  0.68567667  0.52687670  0.23724036  1
  Cl  Cl44  1  0.26907511  0.50668455  0.17692486  1
  Cl  Cl45  1  0.01045518  0.71119355  0.51177359  1
  Cl  Cl46  1  0.32603645  0.48234483  0.78662487  1
  Cl  Cl47  1  0.73978558  0.49213891  0.83168006  1
