# generated using pymatgen
data_CuSbH12C2(NCl3)2
_symmetry_space_group_name_H-M   'P 1'
_cell_length_a   8.12768745
_cell_length_b   9.48944157
_cell_length_c   7.96205055
_cell_angle_alpha   89.79862578
_cell_angle_beta   89.99753010
_cell_angle_gamma   90.00103756
_symmetry_Int_Tables_number   1
_chemical_formula_structural   CuSbH12C2(NCl3)2
_chemical_formula_sum   'Cu2 Sb2 H24 C4 N4 Cl12'
_cell_volume   614.08699220
_cell_formula_units_Z   2
loop_
 _symmetry_equiv_pos_site_id
 _symmetry_equiv_pos_as_xyz
  1  'x, y, z'
loop_
 _atom_site_type_symbol
 _atom_site_label
 _atom_site_symmetry_multiplicity
 _atom_site_fract_x
 _atom_site_fract_y
 _atom_site_fract_z
 _atom_site_occupancy
  C  C0  1  0.46493301  0.24612329  0.43315545  1
  C  C1  1  0.96487568  0.25383792  0.06679395  1
  C  C2  1  0.53966866  0.75055418  0.56617099  1
  C  C3  1  0.03986692  0.74949774  0.93394114  1
  N  N4  1  0.56299966  0.24537865  0.59015526  1
  N  N5  1  0.06293892  0.25465567  0.90978498  1
  N  N6  1  0.43165222  0.75583381  0.41643327  1
  N  N7  1  0.93173448  0.74413982  0.08359879  1
  H  H8  1  0.54822918  0.24316794  0.32592869  1
  H  H9  1  0.38489182  0.15381072  0.43241464  1
  H  H10  1  0.39068730  0.34205566  0.43002927  1
  H  H11  1  0.63470134  0.15549500  0.60408185  1
  H  H12  1  0.64308121  0.32996904  0.59640217  1
  H  H13  1  0.48949553  0.24971907  0.69668168  1
  H  H14  1  0.04816587  0.25691273  0.17401281  1
  H  H15  1  0.89076990  0.15782709  0.06995959  1
  H  H16  1  0.88469720  0.34606370  0.06750731  1
  H  H17  1  0.14309040  0.17011359  0.90351952  1
  H  H18  1  0.13456755  0.34458186  0.89584146  1
  H  H19  1  0.98943399  0.25026627  0.80326794  1
  H  H20  1  0.46282474  0.74715412  0.67845438  1
  H  H21  1  0.61740230  0.65689067  0.55883810  1
  H  H22  1  0.61635011  0.84498007  0.56777760  1
  H  H23  1  0.35501376  0.84300432  0.41702470  1
  H  H24  1  0.35646995  0.66782896  0.40724954  1
  H  H25  1  0.49780075  0.76163076  0.30519143  1
  H  H26  1  0.96311309  0.75285055  0.82159863  1
  H  H27  1  0.11752127  0.84320379  0.94133996  1
  H  H28  1  0.11662640  0.65511655  0.93239336  1
  H  H29  1  0.85647872  0.83210503  0.09273302  1
  H  H30  1  0.85516279  0.65693033  0.08293658  1
  H  H31  1  0.99779483  0.73837713  0.19489231  1
  Cu  Cu32  1  0.61141700  0.01068732  0.01441477  1
  Cu  Cu33  1  0.11139987  0.48932041  0.48563964  1
  Sb  Sb34  1  0.99692735  0.99561483  0.49708949  1
  Sb  Sb35  1  0.49695039  0.50439241  0.00293732  1
  Cl  Cl36  1  0.46461365  0.21540482  0.99034057  1
  Cl  Cl37  1  0.18354872  0.98942757  0.24530819  1
  Cl  Cl38  1  0.71933883  0.99011504  0.28310195  1
  Cl  Cl39  1  0.96458825  0.28458814  0.50961614  1
  Cl  Cl40  1  0.24911655  0.00069933  0.68383936  1
  Cl  Cl41  1  0.78615743  0.01153439  0.78422552  1
  Cl  Cl42  1  0.49237246  0.78372390  0.00766326  1
  Cl  Cl43  1  0.68353667  0.51060015  0.25472471  1
  Cl  Cl44  1  0.21935318  0.50983961  0.21693815  1
  Cl  Cl45  1  0.99234648  0.71626551  0.49238188  1
  Cl  Cl46  1  0.28615833  0.48842596  0.71578832  1
  Cl  Cl47  1  0.74915906  0.49936284  0.81617692  1
