# generated using pymatgen
data_InCuH12C2(NCl3)2
_symmetry_space_group_name_H-M   'P 1'
_cell_length_a   7.90424387
_cell_length_b   9.42141915
_cell_length_c   7.83624474
_cell_angle_alpha   90.94151891
_cell_angle_beta   90.00194888
_cell_angle_gamma   90.00312985
_symmetry_Int_Tables_number   1
_chemical_formula_structural   InCuH12C2(NCl3)2
_chemical_formula_sum   'In2 Cu2 H24 C4 N4 Cl12'
_cell_volume   583.48004486
_cell_formula_units_Z   2
loop_
 _symmetry_equiv_pos_site_id
 _symmetry_equiv_pos_as_xyz
  1  'x, y, z'
loop_
 _atom_site_type_symbol
 _atom_site_label
 _atom_site_symmetry_multiplicity
 _atom_site_fract_x
 _atom_site_fract_y
 _atom_site_fract_z
 _atom_site_occupancy
  C  C0  1  0.46237881  0.24726125  0.42573055  1
  C  C1  1  0.96231592  0.25275087  0.07429805  1
  C  C2  1  0.53682722  0.75005326  0.57360007  1
  C  C3  1  0.03696167  0.74996935  0.92641721  1
  N  N4  1  0.55588162  0.24541475  0.58885537  1
  N  N5  1  0.05586133  0.25458164  0.91120501  1
  N  N6  1  0.43641762  0.75947086  0.41509542  1
  N  N7  1  0.93644769  0.74051936  0.08484470  1
  H  H8  1  0.55298477  0.24816364  0.32108807  1
  H  H9  1  0.38208586  0.15322304  0.41623027  1
  H  H10  1  0.38460726  0.34295932  0.42292688  1
  H  H11  1  0.63278496  0.15678170  0.59978315  1
  H  H12  1  0.63341634  0.33343453  0.60582447  1
  H  H13  1  0.47527604  0.24389225  0.69307394  1
  H  H14  1  0.05290499  0.25186847  0.17896937  1
  H  H15  1  0.88459372  0.15701423  0.07709747  1
  H  H16  1  0.88198471  0.34674954  0.08376851  1
  H  H17  1  0.13341174  0.16659477  0.89426065  1
  H  H18  1  0.13274454  0.34324321  0.90028956  1
  H  H19  1  0.97527436  0.25609842  0.80695452  1
  H  H20  1  0.45073389  0.74931114  0.68222480  1
  H  H21  1  0.61278024  0.65326944  0.56863869  1
  H  H22  1  0.61968799  0.84240802  0.58316587  1
  H  H23  1  0.36166622  0.84987737  0.41147022  1
  H  H24  1  0.35599320  0.67365194  0.39820150  1
  H  H25  1  0.51199832  0.76122017  0.30709598  1
  H  H26  1  0.95094318  0.75071968  0.81772844  1
  H  H27  1  0.11286777  0.84679018  0.93146139  1
  H  H28  1  0.11987217  0.65765636  0.91689060  1
  H  H29  1  0.85598901  0.82630048  0.10169965  1
  H  H30  1  0.86171880  0.65007910  0.08837064  1
  H  H31  1  0.01194813  0.73874663  0.19290403  1
  Cu  Cu32  1  0.60214037  0.00655125  0.01036447  1
  Cu  Cu33  1  0.10212944  0.49342465  0.48964025  1
  In  In34  1  1.00059492  0.00009921  0.49626620  1
  In  In35  1  0.50060594  0.49990381  0.00375083  1
  Cl  Cl36  1  0.47116188  0.21884353  0.99486912  1
  Cl  Cl37  1  0.18515460  0.98642131  0.23989428  1
  Cl  Cl38  1  0.73319140  0.99141468  0.29922200  1
  Cl  Cl39  1  0.97110727  0.28116686  0.50518336  1
  Cl  Cl40  1  0.25016775  0.00819510  0.69043338  1
  Cl  Cl41  1  0.79570543  0.01318196  0.76325173  1
  Cl  Cl42  1  0.49623177  0.78272316  0.00677575  1
  Cl  Cl43  1  0.68515623  0.51361628  0.26012882  1
  Cl  Cl44  1  0.23318402  0.50854558  0.20078542  1
  Cl  Cl45  1  0.99624968  0.71727816  0.49319949  1
  Cl  Cl46  1  0.29570090  0.48677982  0.73678066  1
  Cl  Cl47  1  0.75018208  0.49185795  0.80958577  1
