# generated using pymatgen
data_MgH12C3(I3N)2
_symmetry_space_group_name_H-M   'P 1'
_cell_length_a   8.44167841
_cell_length_b   11.81882719
_cell_length_c   8.26080676
_cell_angle_alpha   88.65459660
_cell_angle_beta   88.57039988
_cell_angle_gamma   91.31183245
_symmetry_Int_Tables_number   1
_chemical_formula_structural   MgH12C3(I3N)2
_chemical_formula_sum   'Mg2 H24 C6 I12 N4'
_cell_volume   823.47575734
_cell_formula_units_Z   2
loop_
 _symmetry_equiv_pos_site_id
 _symmetry_equiv_pos_as_xyz
  1  'x, y, z'
loop_
 _atom_site_type_symbol
 _atom_site_label
 _atom_site_symmetry_multiplicity
 _atom_site_fract_x
 _atom_site_fract_y
 _atom_site_fract_z
 _atom_site_occupancy
  C  C0  1  0.44228554  0.26228108  0.45291545  1
  C  C1  1  0.92569046  0.23605364  0.05675106  1
  C  C2  1  0.56650120  0.73975450  0.56627150  1
  C  C3  1  0.07910257  0.75220220  0.92059463  1
  N  N4  1  0.57318613  0.24902275  0.56823924  1
  N  N5  1  0.06398081  0.25394426  0.94389905  1
  N  N6  1  0.41672189  0.73475534  0.47620708  1
  N  N7  1  0.92594676  0.74944747  0.01279620  1
  H  H8  1  0.49389140  0.27729335  0.33136458  1
  H  H9  1  0.37007498  0.18413473  0.45673007  1
  H  H10  1  0.37048869  0.33380926  0.48869478  1
  H  H11  1  0.64221206  0.18070695  0.53775145  1
  H  H12  1  0.64791476  0.31999157  0.56612884  1
  H  H13  1  0.53121569  0.23471684  0.68649762  1
  H  H14  1  0.96794086  0.23121904  0.18096781  1
  H  H15  1  0.86420214  0.15718458  0.02616927  1
  H  H16  1  0.84750029  0.30802320  0.04278635  1
  H  H17  1  0.14619024  0.19112826  0.95895449  1
  H  H18  1  0.12180602  0.33053262  0.96394670  1
  H  H19  1  0.03162762  0.25509573  0.82191565  1
  H  H20  1  0.53776725  0.75522417  0.69385142  1
  H  H21  1  0.62744186  0.65961187  0.55346953  1
  H  H22  1  0.64054641  0.80999675  0.51665809  1
  H  H23  1  0.35290516  0.80755128  0.49685059  1
  H  H24  1  0.34665087  0.66566232  0.51562001  1
  H  H25  1  0.43789839  0.72902856  0.35118149  1
  H  H26  1  0.05380510  0.75233082  0.79124386  1
  H  H27  1  0.14600992  0.82907807  0.94972816  1
  H  H28  1  0.14505790  0.67695634  0.95404396  1
  H  H29  1  0.85667853  0.81681819  0.97657928  1
  H  H30  1  0.86244389  0.67528715  0.98960633  1
  H  H31  1  0.94178863  0.75291422  0.13750662  1
  C  C32  1  0.46464921  0.04357447  0.09546604  1
  C  C33  1  0.97480135  0.53080712  0.40477142  1
  Mg  Mg34  1  0.06520786  0.03699767  0.55482771  1
  Mg  Mg35  1  0.53882305  0.54544549  0.94009623  1
  I  I36  1  0.48080696  0.22874614  0.00507396  1
  I  I37  1  0.20282027  0.01023752  0.21058624  1
  I  I38  1  0.64405001  0.02348178  0.28629463  1
  I  I39  1  0.99966972  0.25719364  0.52346390  1
  I  I40  1  0.33153170  0.98354556  0.70038184  1
  I  I41  1  0.81240129  0.97487362  0.75091850  1
  I  I42  1  0.50446580  0.75253823  0.05456888  1
  I  I43  1  0.72856750  0.49152823  0.30169877  1
  I  I44  1  0.16314549  0.49452524  0.21284906  1
  I  I45  1  0.99125395  0.72487579  0.43488108  1
  I  I46  1  0.30477875  0.49126025  0.73819840  1
  I  I47  1  0.81557681  0.49869040  0.80029874  1
