# generated using pymatgen
data_YCuH12C2(NCl3)2
_symmetry_space_group_name_H-M   'P 1'
_cell_length_a   8.37672763
_cell_length_b   9.61629222
_cell_length_c   7.76529172
_cell_angle_alpha   90.66072089
_cell_angle_beta   90.07199850
_cell_angle_gamma   89.98826413
_symmetry_Int_Tables_number   1
_chemical_formula_structural   YCuH12C2(NCl3)2
_chemical_formula_sum   'Y2 Cu2 H24 C4 N4 Cl12'
_cell_volume   625.47591964
_cell_formula_units_Z   2
loop_
 _symmetry_equiv_pos_site_id
 _symmetry_equiv_pos_as_xyz
  1  'x, y, z'
loop_
 _atom_site_type_symbol
 _atom_site_label
 _atom_site_symmetry_multiplicity
 _atom_site_fract_x
 _atom_site_fract_y
 _atom_site_fract_z
 _atom_site_occupancy
  C  C0  1  0.44687545  0.25018310  0.44224881  1
  C  C1  1  0.94713726  0.24952617  0.05744302  1
  C  C2  1  0.55309636  0.74981209  0.55773628  1
  C  C3  1  0.05287636  0.75048470  0.94258678  1
  N  N4  1  0.59675695  0.25315566  0.54434142  1
  N  N5  1  0.09671430  0.24661072  0.95524482  1
  N  N6  1  0.40321601  0.74686794  0.45564250  1
  N  N7  1  0.90331169  0.75337879  0.04480616  1
  H  H8  1  0.47863122  0.24819159  0.30598308  1
  H  H9  1  0.38039234  0.15649084  0.47469186  1
  H  H10  1  0.37697782  0.34294902  0.47316608  1
  H  H11  1  0.66762718  0.16923919  0.50768071  1
  H  H12  1  0.66092077  0.34279555  0.52079047  1
  H  H13  1  0.57542642  0.24701612  0.67549466  1
  H  H14  1  0.97937422  0.25157727  0.19370423  1
  H  H15  1  0.87727690  0.15673464  0.02665255  1
  H  H16  1  0.88045424  0.34317416  0.02502830  1
  H  H17  1  0.16099074  0.15695947  0.97854293  1
  H  H18  1  0.16763209  0.33050618  0.99179845  1
  H  H19  1  0.07490051  0.25278759  0.82404944  1
  H  H20  1  0.52134083  0.75179356  0.69400223  1
  H  H21  1  0.62298623  0.65704490  0.52680452  1
  H  H22  1  0.61958942  0.84350209  0.52531034  1
  H  H23  1  0.33234848  0.83078305  0.49231740  1
  H  H24  1  0.33904801  0.65722603  0.47917136  1
  H  H25  1  0.42454886  0.75302464  0.32449207  1
  H  H26  1  0.02062474  0.74845432  0.80633077  1
  H  H27  1  0.12273823  0.84327422  0.97339472  1
  H  H28  1  0.11956592  0.65683439  0.97496929  1
  H  H29  1  0.83902838  0.84302792  0.02153315  1
  H  H30  1  0.83239228  0.66948372  0.00824306  1
  H  H31  1  0.92513759  0.74718266  0.17599565  1
  Cu  Cu32  1  0.50051981  0.99998892  0.99982097  1
  Cu  Cu33  1  0.00006949  0.50001266  0.50022703  1
  Y  Y34  1  0.99995731  0.99998390  0.50003760  1
  Y  Y35  1  0.50001346  0.50001816  0.99997234  1
  Cl  Cl36  1  0.50290395  0.22164693  0.95651002  1
  Cl  Cl37  1  0.19145907  0.00595529  0.23553310  1
  Cl  Cl38  1  0.74609023  0.01316597  0.30364407  1
  Cl  Cl39  1  0.00302342  0.27833333  0.54305474  1
  Cl  Cl40  1  0.25380637  0.98682519  0.69637005  1
  Cl  Cl41  1  0.80832362  0.99401018  0.76458273  1
  Cl  Cl42  1  0.49702478  0.77838958  0.04343249  1
  Cl  Cl43  1  0.69178335  0.49365434  0.26487577  1
  Cl  Cl44  1  0.24631943  0.48691011  0.19583970  1
  Cl  Cl45  1  0.99690394  0.72163283  0.45701907  1
  Cl  Cl46  1  0.30816747  0.50635460  0.73507049  1
  Cl  Cl47  1  0.75372022  0.51312402  0.80410933  1
