# generated using pymatgen
data_CuAsH12C2(NCl3)2
_symmetry_space_group_name_H-M   'P 1'
_cell_length_a   7.74671811
_cell_length_b   9.96623569
_cell_length_c   7.94028827
_cell_angle_alpha   90.83334054
_cell_angle_beta   89.86396801
_cell_angle_gamma   89.90328069
_symmetry_Int_Tables_number   1
_chemical_formula_structural   CuAsH12C2(NCl3)2
_chemical_formula_sum   'Cu2 As2 H24 C4 N4 Cl12'
_cell_volume   612.96738892
_cell_formula_units_Z   2
loop_
 _symmetry_equiv_pos_site_id
 _symmetry_equiv_pos_as_xyz
  1  'x, y, z'
loop_
 _atom_site_type_symbol
 _atom_site_label
 _atom_site_symmetry_multiplicity
 _atom_site_fract_x
 _atom_site_fract_y
 _atom_site_fract_z
 _atom_site_occupancy
  C  C0  1  0.48766873  0.23771062  0.42796266  1
  C  C1  1  0.98942797  0.25479989  0.06813817  1
  C  C2  1  0.52098355  0.75075935  0.57157673  1
  C  C3  1  0.02162228  0.75859590  0.93364393  1
  N  N4  1  0.54971103  0.25017375  0.60364613  1
  N  N5  1  0.04799890  0.25824983  0.89067669  1
  N  N6  1  0.44124446  0.75681102  0.40265786  1
  N  N7  1  0.94364741  0.73513922  0.10096276  1
  H  H8  1  0.59880097  0.22527707  0.34443266  1
  H  H9  1  0.40225568  0.15099984  0.41690277  1
  H  H10  1  0.41785749  0.32948860  0.39568778  1
  H  H11  1  0.61369011  0.16379642  0.64424825  1
  H  H12  1  0.63726236  0.32779751  0.61699422  1
  H  H13  1  0.45105291  0.27001231  0.68854108  1
  H  H14  1  0.10229256  0.25664422  0.15007794  1
  H  H15  1  0.91727119  0.16168672  0.08724857  1
  H  H16  1  0.90683499  0.34150933  0.09464565  1
  H  H17  1  0.12639915  0.17697191  0.86058613  1
  H  H18  1  0.11970844  0.34400968  0.86312324  1
  H  H19  1  0.94709100  0.25479650  0.80569169  1
  H  H20  1  0.41858719  0.74760422  0.66592684  1
  H  H21  1  0.60043796  0.66018018  0.57834293  1
  H  H22  1  0.60090216  0.83990860  0.59161473  1
  H  H23  1  0.36110514  0.83956424  0.39018114  1
  H  H24  1  0.36743146  0.67213119  0.37352197  1
  H  H25  1  0.53308681  0.76542763  0.30886766  1
  H  H26  1  0.91816289  0.77694336  0.84385119  1
  H  H27  1  0.10595261  0.84628119  0.94253819  1
  H  H28  1  0.09626656  0.67004413  0.89485820  1
  H  H29  1  0.87497053  0.81876513  0.14622583  1
  H  H30  1  0.85858133  0.65523891  0.09864691  1
  H  H31  1  0.03629962  0.71081419  0.18914974  1
  Cu  Cu32  1  0.63954916  0.06276288  0.02341964  1
  Cu  Cu33  1  0.14320940  0.43499992  0.47801081  1
  As  As34  1  0.00029525  0.99120832  0.49588591  1
  As  As35  1  0.50281322  0.50690726  0.00660027  1
  Cl  Cl36  1  0.45014510  0.22884268  0.00360518  1
  Cl  Cl37  1  0.18224973  0.98730544  0.26097376  1
  Cl  Cl38  1  0.71908378  0.96979909  0.26395639  1
  Cl  Cl39  1  0.94994770  0.27209110  0.49323469  1
  Cl  Cl40  1  0.23265328  0.01140225  0.68036059  1
  Cl  Cl41  1  0.76722887  0.01927197  0.77174969  1
  Cl  Cl42  1  0.49520504  0.73936894  0.99551313  1
  Cl  Cl43  1  0.67864605  0.50693400  0.24385709  1
  Cl  Cl44  1  0.21741444  0.52348611  0.23212666  1
  Cl  Cl45  1  0.99329256  0.75953478  0.51089882  1
  Cl  Cl46  1  0.27369082  0.48661019  0.72354538  1
  Cl  Cl47  1  0.73999388  0.49142072  0.82538837  1
