# generated using pymatgen
data_CuGeH12C2(NCl3)2
_symmetry_space_group_name_H-M   'P 1'
_cell_length_a   7.58497145
_cell_length_b   9.80065569
_cell_length_c   8.02799429
_cell_angle_alpha   89.79645029
_cell_angle_beta   89.92536883
_cell_angle_gamma   90.14777161
_symmetry_Int_Tables_number   1
_chemical_formula_structural   CuGeH12C2(NCl3)2
_chemical_formula_sum   'Cu2 Ge2 H24 C4 N4 Cl12'
_cell_volume   596.77631542
_cell_formula_units_Z   2
loop_
 _symmetry_equiv_pos_site_id
 _symmetry_equiv_pos_as_xyz
  1  'x, y, z'
loop_
 _atom_site_type_symbol
 _atom_site_label
 _atom_site_symmetry_multiplicity
 _atom_site_fract_x
 _atom_site_fract_y
 _atom_site_fract_z
 _atom_site_occupancy
  C  C0  1  0.46809053  0.24972771  0.45036617  1
  C  C1  1  0.97553605  0.24753310  0.07539480  1
  C  C2  1  0.52995840  0.74300693  0.56405976  1
  C  C3  1  0.03415394  0.75042206  0.92525590  1
  N  N4  1  0.56587686  0.24730163  0.61017956  1
  N  N5  1  0.05488354  0.25667379  0.90729637  1
  N  N6  1  0.44429642  0.75369412  0.39942617  1
  N  N7  1  0.93283384  0.75803570  0.08255511  1
  H  H8  1  0.56318751  0.24916162  0.34830336  1
  H  H9  1  0.38392293  0.15926006  0.44401530  1
  H  H10  1  0.38730610  0.34191824  0.44528377  1
  H  H11  1  0.64143569  0.15989912  0.62459708  1
  H  H12  1  0.65189637  0.32891023  0.62051340  1
  H  H13  1  0.48223091  0.25024588  0.71191106  1
  H  H14  1  0.08134055  0.24194286  0.16704586  1
  H  H15  1  0.89270742  0.15632483  0.08198791  1
  H  H16  1  0.89516438  0.33811697  0.09652603  1
  H  H17  1  0.12930075  0.17055513  0.87748097  1
  H  H18  1  0.13823327  0.34041546  0.89440387  1
  H  H19  1  0.96126766  0.26621320  0.81474701  1
  H  H20  1  0.42795043  0.73568440  0.65975756  1
  H  H21  1  0.61333697  0.65222715  0.56700688  1
  H  H22  1  0.61183537  0.83374349  0.58274056  1
  H  H23  1  0.36254332  0.83848857  0.38820551  1
  H  H24  1  0.36757651  0.66879759  0.37103804  1
  H  H25  1  0.53579477  0.76293631  0.30458155  1
  H  H26  1  0.94213971  0.74966888  0.82100870  1
  H  H27  1  0.12061224  0.83948850  0.91694313  1
  H  H28  1  0.11160432  0.65679478  0.92639475  1
  H  H29  1  0.85678459  0.84554291  0.08866995  1
  H  H30  1  0.84840541  0.67549515  0.09800138  1
  H  H31  1  0.01467786  0.75922775  0.18543352  1
  Cu  Cu32  1  0.51781813  0.95614143  0.86602730  1
  Cu  Cu33  1  0.98668735  0.49823369  0.39819203  1
  Ge  Ge34  1  0.98973378  0.98765227  0.47524804  1
  Ge  Ge35  1  0.50158127  0.49488071  0.00451539  1
  Cl  Cl36  1  0.49160827  0.26148737  0.02539089  1
  Cl  Cl37  1  0.19728755  0.98464685  0.25136243  1
  Cl  Cl38  1  0.73273414  0.98831019  0.30705033  1
  Cl  Cl39  1  0.97908226  0.28833720  0.50403454  1
  Cl  Cl40  1  0.27567456  0.01917978  0.74257315  1
  Cl  Cl41  1  0.78946712  0.01284716  0.81134736  1
  Cl  Cl42  1  0.50220683  0.75113916  0.00229575  1
  Cl  Cl43  1  0.70318242  0.51497074  0.25546281  1
  Cl  Cl44  1  0.23667866  0.51261897  0.20699870  1
  Cl  Cl45  1  0.00922676  0.71392654  0.49162539  1
  Cl  Cl46  1  0.31175532  0.49146357  0.77474463  1
  Cl  Cl47  1  0.74841470  0.49678854  0.83229686  1
