# generated using pymatgen
data_GaCuH12C2(NCl3)2
_symmetry_space_group_name_H-M   'P 1'
_cell_length_a   7.67423205
_cell_length_b   9.86688813
_cell_length_c   8.44288703
_cell_angle_alpha   89.79248583
_cell_angle_beta   90.74772442
_cell_angle_gamma   89.74947555
_symmetry_Int_Tables_number   1
_chemical_formula_structural   GaCuH12C2(NCl3)2
_chemical_formula_sum   'Ga2 Cu2 H24 C4 N4 Cl12'
_cell_volume   639.23719268
_cell_formula_units_Z   2
loop_
 _symmetry_equiv_pos_site_id
 _symmetry_equiv_pos_as_xyz
  1  'x, y, z'
loop_
 _atom_site_type_symbol
 _atom_site_label
 _atom_site_symmetry_multiplicity
 _atom_site_fract_x
 _atom_site_fract_y
 _atom_site_fract_z
 _atom_site_occupancy
  C  C0  1  0.47920740  0.22959424  0.41601322  1
  C  C1  1  0.99361734  0.26343581  0.07722920  1
  C  C2  1  0.50924580  0.76041385  0.57917803  1
  C  C3  1  0.01992012  0.72939631  0.91347949  1
  N  N4  1  0.53014241  0.24086949  0.58526503  1
  N  N5  1  0.05919504  0.27056288  0.91263647  1
  N  N6  1  0.44470825  0.77092091  0.41286862  1
  N  N7  1  0.96544318  0.73940189  0.08079926  1
  H  H8  1  0.59582201  0.21278502  0.34554662  1
  H  H9  1  0.38796140  0.14548648  0.40043086  1
  H  H10  1  0.41370578  0.32405977  0.38146865  1
  H  H11  1  0.58193410  0.15228757  0.63213882  1
  H  H12  1  0.62295692  0.31722063  0.60523223  1
  H  H13  1  0.42357580  0.27059229  0.65107874  1
  H  H14  1  0.10395430  0.24519454  0.15739774  1
  H  H15  1  0.90188564  0.17916236  0.08525729  1
  H  H16  1  0.92881991  0.35896828  0.10572953  1
  H  H17  1  0.11580592  0.17957507  0.87813056  1
  H  H18  1  0.15378586  0.34393670  0.89812617  1
  H  H19  1  0.95924566  0.29474434  0.83302824  1
  H  H20  1  0.39832515  0.74102293  0.65542807  1
  H  H21  1  0.60113317  0.67549110  0.58775564  1
  H  H22  1  0.57344643  0.85499946  0.61229190  1
  H  H23  1  0.35038453  0.84538263  0.39698029  1
  H  H24  1  0.38763970  0.68098266  0.37513181  1
  H  H25  1  0.54470737  0.79490017  0.33605883  1
  H  H26  1  0.90472669  0.71473393  0.83805444  1
  H  H27  1  0.08682604  0.82344793  0.88306806  1
  H  H28  1  0.11064671  0.64431785  0.90022435  1
  H  H29  1  0.87249840  0.81639697  0.09805601  1
  H  H30  1  0.91289324  0.65077518  0.12457364  1
  H  H31  1  0.07070548  0.76727405  0.15134616  1
  Cu  Cu32  1  0.47701976  0.98543910  0.13337299  1
  Cu  Cu33  1  0.01641246  0.48299187  0.63182601  1
  Ga  Ga34  1  0.99700330  0.00641853  0.59245738  1
  Ga  Ga35  1  0.50444450  0.50589176  0.09451752  1
  Cl  Cl36  1  0.49984618  0.30088269  0.99159671  1
  Cl  Cl37  1  0.20618935  0.97952381  0.16067997  1
  Cl  Cl38  1  0.73881714  0.97383443  0.20753797  1
  Cl  Cl39  1  0.97245406  0.19715038  0.46004866  1
  Cl  Cl40  1  0.25353393  0.02237376  0.72281644  1
  Cl  Cl41  1  0.78748380  0.01793781  0.77404906  1
  Cl  Cl42  1  0.52678073  0.69581599  0.96126941  1
  Cl  Cl43  1  0.71717952  0.51662659  0.27778646  1
  Cl  Cl44  1  0.24944184  0.52419421  0.22094588  1
  Cl  Cl45  1  0.99893663  0.80139764  0.48957634  1
  Cl  Cl46  1  0.28861321  0.48115358  0.65425320  1
  Cl  Cl47  1  0.76100159  0.47011283  0.71755861  1
