# generated using pymatgen
data_ZnH12PbC2(NCl3)2
_symmetry_space_group_name_H-M   'P 1'
_cell_length_a   7.50093164
_cell_length_b   11.53206374
_cell_length_c   7.76405925
_cell_angle_alpha   91.00186992
_cell_angle_beta   90.02368057
_cell_angle_gamma   90.00140738
_symmetry_Int_Tables_number   1
_chemical_formula_structural   ZnH12PbC2(NCl3)2
_chemical_formula_sum   'Zn2 H24 Pb2 C4 N4 Cl12'
_cell_volume   671.49788262
_cell_formula_units_Z   2
loop_
 _symmetry_equiv_pos_site_id
 _symmetry_equiv_pos_as_xyz
  1  'x, y, z'
loop_
 _atom_site_type_symbol
 _atom_site_label
 _atom_site_symmetry_multiplicity
 _atom_site_fract_x
 _atom_site_fract_y
 _atom_site_fract_z
 _atom_site_occupancy
  C  C0  1  0.38778702  0.24967505  0.37843346  1
  C  C1  1  0.88421997  0.24371973  0.11989211  1
  C  C2  1  0.61605815  0.74360719  0.61968882  1
  C  C3  1  0.11191476  0.74966909  0.87816759  1
  N  N4  1  0.54138184  0.26154711  0.49705008  1
  N  N5  1  0.03817366  0.25461813  0.00176191  1
  N  N6  1  0.46189855  0.75467544  0.50173119  1
  N  N7  1  0.95856935  0.76149768  0.99696738  1
  H  H8  1  0.43623134  0.24506859  0.24541966  1
  H  H9  1  0.31924375  0.16915497  0.40936371  1
  H  H10  1  0.29929509  0.32410595  0.39617513  1
  H  H11  1  0.62556597  0.19087882  0.48152338  1
  H  H12  1  0.61402462  0.33687706  0.47154378  1
  H  H13  1  0.50253835  0.26383618  0.62680439  1
  H  H14  1  0.93302852  0.24509924  0.25301488  1
  H  H15  1  0.81256040  0.16339017  0.08942758  1
  H  H16  1  0.79692128  0.31848119  0.10219984  1
  H  H17  1  0.12829065  0.18702501  0.01371183  1
  H  H18  1  0.10538295  0.33236884  0.03012596  1
  H  H19  1  0.99897837  0.25494683  0.87249704  1
  H  H20  1  0.56752520  0.74498389  0.75286214  1
  H  H21  1  0.68750440  0.66324087  0.58907872  1
  H  H22  1  0.70347155  0.81831486  0.60192895  1
  H  H23  1  0.39482790  0.83243446  0.53023349  1
  H  H24  1  0.37169125  0.68710738  0.51371049  1
  H  H25  1  0.50084986  0.75501709  0.37244039  1
  H  H26  1  0.06320748  0.74511443  0.74520716  1
  H  H27  1  0.20044552  0.82410356  0.89586799  1
  H  H28  1  0.18052790  0.66913782  0.90892307  1
  H  H29  1  0.88585317  0.83681748  0.97157297  1
  H  H30  1  0.87437354  0.69080754  0.98150328  1
  H  H31  1  0.99764931  0.76376791  0.12667922  1
  Zn  Zn32  1  0.54563553  0.94854355  0.09105054  1
  Zn  Zn33  1  0.95434919  0.44848232  0.59105209  1
  Pb  Pb34  1  0.05013171  0.99788849  0.42093302  1
  Pb  Pb35  1  0.44991870  0.49790092  0.92112689  1
  Cl  Cl36  1  0.46156495  0.26946451  0.89745075  1
  Cl  Cl37  1  0.25114354  0.01099181  0.10469489  1
  Cl  Cl38  1  0.65402085  0.00741474  0.35559636  1
  Cl  Cl39  1  0.96509582  0.24855864  0.60099915  1
  Cl  Cl40  1  0.30148485  0.98737341  0.65706759  1
  Cl  Cl41  1  0.74530355  0.98929879  0.88469720  1
  Cl  Cl42  1  0.53481725  0.74861622  0.10094678  1
  Cl  Cl43  1  0.75468930  0.48924869  0.38452084  1
  Cl  Cl44  1  0.19858005  0.48738865  0.15705977  1
  Cl  Cl45  1  0.03853372  0.76945315  0.39732030  1
  Cl  Cl46  1  0.24881678  0.51100753  0.60479287  1
  Cl  Cl47  1  0.84594626  0.50735726  0.85547997  1
