# generated using pymatgen
data_TlZnH12C2(NCl3)2
_symmetry_space_group_name_H-M   'P 1'
_cell_length_a   7.78524291
_cell_length_b   10.85280071
_cell_length_c   7.37576021
_cell_angle_alpha   88.54298333
_cell_angle_beta   90.65829932
_cell_angle_gamma   90.92626496
_symmetry_Int_Tables_number   1
_chemical_formula_structural   TlZnH12C2(NCl3)2
_chemical_formula_sum   'Tl2 Zn2 H24 C4 N4 Cl12'
_cell_volume   622.86928769
_cell_formula_units_Z   2
loop_
 _symmetry_equiv_pos_site_id
 _symmetry_equiv_pos_as_xyz
  1  'x, y, z'
loop_
 _atom_site_type_symbol
 _atom_site_label
 _atom_site_symmetry_multiplicity
 _atom_site_fract_x
 _atom_site_fract_y
 _atom_site_fract_z
 _atom_site_occupancy
  C  C0  1  0.40705666  0.24788494  0.42521972  1
  C  C1  1  0.91699930  0.24624307  0.08224011  1
  C  C2  1  0.59294250  0.75211864  0.57479338  1
  C  C3  1  0.08300258  0.75376038  0.91777248  1
  N  N4  1  0.57059937  0.23937589  0.52866500  1
  N  N5  1  0.07489735  0.24767930  0.97213284  1
  N  N6  1  0.42940002  0.76062818  0.47134776  1
  N  N7  1  0.92510488  0.75232231  0.02788054  1
  H  H8  1  0.43619303  0.24834207  0.28069859  1
  H  H9  1  0.32847926  0.16676122  0.45959654  1
  H  H10  1  0.34297181  0.33234611  0.46084870  1
  H  H11  1  0.63002673  0.15793809  0.49760891  1
  H  H12  1  0.65108877  0.31278003  0.49236778  1
  H  H13  1  0.55055903  0.24104929  0.66817525  1
  H  H14  1  0.95482727  0.24582919  0.22533755  1
  H  H15  1  0.84036819  0.16420538  0.05159414  1
  H  H16  1  0.84531630  0.32964100  0.04995452  1
  H  H17  1  0.14448930  0.16762762  0.99749912  1
  H  H18  1  0.15174488  0.32239625  0.00812908  1
  H  H19  1  0.04757193  0.25705052  0.83431283  1
  H  H20  1  0.56380662  0.75166383  0.71931418  1
  H  H21  1  0.65702600  0.66765627  0.53916694  1
  H  H22  1  0.67152123  0.83324131  0.54041333  1
  H  H23  1  0.36997353  0.84206686  0.50240203  1
  H  H24  1  0.34890896  0.68722528  0.50764719  1
  H  H25  1  0.44943973  0.75895319  0.33183795  1
  H  H26  1  0.04517364  0.75417350  0.77467541  1
  H  H27  1  0.15963259  0.83579884  0.94841794  1
  H  H28  1  0.15468754  0.67036324  0.95005636  1
  H  H29  1  0.85551132  0.83237292  0.00251478  1
  H  H30  1  0.84825974  0.67760386  0.99188358  1
  H  H31  1  0.95243140  0.74295233  0.16570102  1
  Zn  Zn32  1  0.50000121  0.00000553  0.00000436  1
  Zn  Zn33  1  0.00001172  0.49999575  0.49994594  1
  Tl  Tl34  1  0.99999965  0.00000243  0.50000419  1
  Tl  Tl35  1  0.50000466  0.50000303  0.00000197  1
  Cl  Cl36  1  0.49187018  0.26005566  0.94860002  1
  Cl  Cl37  1  0.23351293  0.00624537  0.16028366  1
  Cl  Cl38  1  0.65406792  0.00585295  0.27931228  1
  Cl  Cl39  1  0.98695526  0.29791317  0.55191073  1
  Cl  Cl40  1  0.34593261  0.99415240  0.72069918  1
  Cl  Cl41  1  0.76648857  0.99375770  0.83972856  1
  Cl  Cl42  1  0.50812632  0.73994583  0.05142218  1
  Cl  Cl43  1  0.69865272  0.48429497  0.30411493  1
  Cl  Cl44  1  0.20822045  0.48358102  0.18932226  1
  Cl  Cl45  1  0.01304384  0.70209242  0.44811251  1
  Cl  Cl46  1  0.30135846  0.51570721  0.69591279  1
  Cl  Cl47  1  0.79176582  0.51642190  0.81071548  1
