# generated using pymatgen
data_ZnHgH12C2(NCl3)2
_symmetry_space_group_name_H-M   'P 1'
_cell_length_a   6.74310583
_cell_length_b   11.75144792
_cell_length_c   7.94560955
_cell_angle_alpha   91.30726369
_cell_angle_beta   90.00450423
_cell_angle_gamma   89.99811889
_symmetry_Int_Tables_number   1
_chemical_formula_structural   ZnHgH12C2(NCl3)2
_chemical_formula_sum   'Zn2 Hg2 H24 C4 N4 Cl12'
_cell_volume   629.45621183
_cell_formula_units_Z   2
loop_
 _symmetry_equiv_pos_site_id
 _symmetry_equiv_pos_as_xyz
  1  'x, y, z'
loop_
 _atom_site_type_symbol
 _atom_site_label
 _atom_site_symmetry_multiplicity
 _atom_site_fract_x
 _atom_site_fract_y
 _atom_site_fract_z
 _atom_site_occupancy
  C  C0  1  0.38515548  0.24696730  0.34655925  1
  C  C1  1  0.89002428  0.24305318  0.15092549  1
  C  C2  1  0.60979290  0.74293738  0.65105859  1
  C  C3  1  0.11498132  0.74701620  0.84670101  1
  N  N4  1  0.51033811  0.26747706  0.49665987  1
  N  N5  1  0.01565563  0.26532770  0.00278928  1
  N  N6  1  0.48432044  0.76550939  0.50291819  1
  N  N7  1  0.98971404  0.76732011  0.99679121  1
  H  H8  1  0.47847726  0.24377297  0.23386860  1
  H  H9  1  0.30855661  0.16582116  0.35927915  1
  H  H10  1  0.28007086  0.31749422  0.33770793  1
  H  H11  1  0.62574307  0.20978699  0.50420868  1
  H  H12  1  0.57469751  0.34836369  0.49087850  1
  H  H13  1  0.43294506  0.26144894  0.60948553  1
  H  H14  1  0.98244271  0.24160359  0.26394573  1
  H  H15  1  0.81561018  0.16133676  0.13136914  1
  H  H16  1  0.78266781  0.31242054  0.16449630  1
  H  H17  1  0.13514696  0.21004396  0.99202177  1
  H  H18  1  0.07329228  0.34761183  0.01349179  1
  H  H19  1  0.93894174  0.25782633  0.88928849  1
  H  H20  1  0.51737040  0.74168552  0.76407457  1
  H  H21  1  0.68367283  0.66106245  0.63148698  1
  H  H22  1  0.71761536  0.81206046  0.66464570  1
  H  H23  1  0.42709589  0.84788913  0.51367373  1
  H  H24  1  0.36451388  0.71045278  0.49204619  1
  H  H25  1  0.56102444  0.75790713  0.38943339  1
  H  H26  1  0.02164772  0.74362985  0.73401054  1
  H  H27  1  0.21966204  0.81773808  0.83782591  1
  H  H28  1  0.19204177  0.66601404  0.85945157  1
  H  H29  1  0.92500640  0.84811548  0.99101809  1
  H  H30  1  0.87459496  0.70944448  0.00428576  1
  H  H31  1  0.06713757  0.76139539  0.10962749  1
  Zn  Zn32  1  0.54659500  0.94108144  0.09753306  1
  Zn  Zn33  1  0.95338688  0.44114071  0.59754442  1
  Hg  Hg34  1  0.04308019  0.95414439  0.41795378  1
  Hg  Hg35  1  0.45690028  0.45407130  0.91792420  1
  Cl  Cl36  1  0.47634598  0.24091561  0.88729508  1
  Cl  Cl37  1  0.22846398  0.00765508  0.11503696  1
  Cl  Cl38  1  0.68949010  0.01049419  0.35807509  1
  Cl  Cl39  1  0.96861335  0.24895034  0.61019523  1
  Cl  Cl40  1  0.28820509  0.00480851  0.62879482  1
  Cl  Cl41  1  0.75827813  0.99173933  0.89699727  1
  Cl  Cl42  1  0.53137113  0.74890674  0.11035308  1
  Cl  Cl43  1  0.74172715  0.49188198  0.39700689  1
  Cl  Cl44  1  0.21182903  0.50465461  0.12883038  1
  Cl  Cl45  1  0.02373808  0.74096710  0.38747851  1
  Cl  Cl46  1  0.27150956  0.50769464  0.61510422  1
  Cl  Cl47  1  0.81053230  0.51043821  0.85814923  1
