# generated using pymatgen
data_ZnH12PtC2(NCl3)2
_symmetry_space_group_name_H-M   'P 1'
_cell_length_a   7.34672272
_cell_length_b   10.49007432
_cell_length_c   7.97455455
_cell_angle_alpha   93.95281046
_cell_angle_beta   89.99660614
_cell_angle_gamma   89.99942161
_symmetry_Int_Tables_number   1
_chemical_formula_structural   ZnH12PtC2(NCl3)2
_chemical_formula_sum   'Zn2 H24 Pt2 C4 N4 Cl12'
_cell_volume   613.11833006
_cell_formula_units_Z   2
loop_
 _symmetry_equiv_pos_site_id
 _symmetry_equiv_pos_as_xyz
  1  'x, y, z'
loop_
 _atom_site_type_symbol
 _atom_site_label
 _atom_site_symmetry_multiplicity
 _atom_site_fract_x
 _atom_site_fract_y
 _atom_site_fract_z
 _atom_site_occupancy
  C  C0  1  0.38542121  0.25042256  0.35315017  1
  C  C1  1  0.94969650  0.25111229  0.13409344  1
  C  C2  1  0.55029595  0.75111191  0.63417577  1
  C  C3  1  0.11456583  0.75041072  0.85320443  1
  N  N4  1  0.48522960  0.26939539  0.51356858  1
  N  N5  1  0.06848929  0.23810435  0.98335533  1
  N  N6  1  0.43152384  0.73815552  0.48343442  1
  N  N7  1  0.01478297  0.76935947  0.01365075  1
  H  H8  1  0.48372386  0.24169574  0.24989640  1
  H  H9  1  0.30401903  0.16353548  0.35564406  1
  H  H10  1  0.30073148  0.33460683  0.33907674  1
  H  H11  1  0.57318390  0.19454281  0.52998454  1
  H  H12  1  0.56330467  0.35223230  0.51163232  1
  H  H13  1  0.40151672  0.27900230  0.61780189  1
  H  H14  1  0.03518024  0.26878009  0.24530253  1
  H  H15  1  0.87367446  0.16237697  0.14299901  1
  H  H16  1  0.85654197  0.33119965  0.12243105  1
  H  H17  1  0.15675751  0.16088145  0.98926781  1
  H  H18  1  0.14836576  0.31946187  0.97655027  1
  H  H19  1  0.99403714  0.22399248  0.87279917  1
  H  H20  1  0.46481000  0.76889907  0.74537094  1
  H  H21  1  0.62615475  0.66231509  0.64314824  1
  H  H22  1  0.64359877  0.83110921  0.62246948  1
  H  H23  1  0.35172741  0.81955185  0.47662419  1
  H  H24  1  0.34318284  0.66097407  0.48934958  1
  H  H25  1  0.50598622  0.72400160  0.37288211  1
  H  H26  1  0.01624452  0.74166256  0.74997885  1
  H  H27  1  0.19920860  0.83461448  0.83911006  1
  H  H28  1  0.19601216  0.66354116  0.85567528  1
  H  H29  1  0.93667713  0.85218358  0.01173712  1
  H  H30  1  0.92686482  0.69449037  0.03008584  1
  H  H31  1  0.09851435  0.77897887  0.11786117  1
  Zn  Zn32  1  0.57198490  0.94571528  0.08699830  1
  Zn  Zn33  1  0.92802225  0.44575010  0.58697136  1
  Pt  Pt34  1  0.96453414  0.00586379  0.48530576  1
  Pt  Pt35  1  0.53546036  0.50585251  0.98528952  1
  Cl  Cl36  1  0.49955741  0.29337190  0.90757041  1
  Cl  Cl37  1  0.28078508  0.99313248  0.10289911  1
  Cl  Cl38  1  0.67189537  0.00110772  0.36725096  1
  Cl  Cl39  1  0.90911085  0.21527581  0.60280129  1
  Cl  Cl40  1  0.24447781  0.01236769  0.61408615  1
  Cl  Cl41  1  0.77015127  0.99183340  0.89508952  1
  Cl  Cl42  1  0.59086100  0.71524977  0.10284468  1
  Cl  Cl43  1  0.72988090  0.49187762  0.39506727  1
  Cl  Cl44  1  0.25549777  0.51233313  0.11406049  1
  Cl  Cl45  1  0.00044957  0.79337332  0.40764452  1
  Cl  Cl46  1  0.21922133  0.49315705  0.60287154  1
  Cl  Cl47  1  0.82811021  0.50111458  0.86723418  1
