# generated using pymatgen
data_HfZnH12C2(NCl3)2
_symmetry_space_group_name_H-M   'P 1'
_cell_length_a   7.64149650
_cell_length_b   11.31345049
_cell_length_c   7.85028260
_cell_angle_alpha   100.58685551
_cell_angle_beta   89.99711869
_cell_angle_gamma   89.99524581
_symmetry_Int_Tables_number   1
_chemical_formula_structural   HfZnH12C2(NCl3)2
_chemical_formula_sum   'Hf2 Zn2 H24 C4 N4 Cl12'
_cell_volume   667.11756485
_cell_formula_units_Z   2
loop_
 _symmetry_equiv_pos_site_id
 _symmetry_equiv_pos_as_xyz
  1  'x, y, z'
loop_
 _atom_site_type_symbol
 _atom_site_label
 _atom_site_symmetry_multiplicity
 _atom_site_fract_x
 _atom_site_fract_y
 _atom_site_fract_z
 _atom_site_occupancy
  C  C0  1  0.42277920  0.24536866  0.39140184  1
  C  C1  1  0.91434174  0.24685219  0.10954025  1
  C  C2  1  0.58576836  0.74666267  0.60957539  1
  C  C3  1  0.07721892  0.74554334  0.89152680  1
  N  N4  1  0.56547054  0.26365916  0.52204979  1
  N  N5  1  0.05268075  0.24558235  0.97641364  1
  N  N6  1  0.44748646  0.74567800  0.47647582  1
  N  N7  1  0.93464711  0.76352728  0.02233237  1
  H  H8  1  0.48065060  0.23667603  0.26214354  1
  H  H9  1  0.35324892  0.16294072  0.40318395  1
  H  H10  1  0.33454438  0.32291073  0.41616734  1
  H  H11  1  0.65139579  0.19127538  0.50084303  1
  H  H12  1  0.63519968  0.34120062  0.51745555  1
  H  H13  1  0.51786284  0.27073035  0.64810030  1
  H  H14  1  0.97697673  0.25529505  0.23659357  1
  H  H15  1  0.83999518  0.16283931  0.08044004  1
  H  H16  1  0.82933329  0.32408975  0.10665328  1
  H  H17  1  0.13880880  0.17516600  0.97452689  1
  H  H18  1  0.12339416  0.32576273  0.00164888  1
  H  H19  1  0.00198321  0.23726979  0.85145187  1
  H  H20  1  0.52306071  0.75463478  0.73653312  1
  H  H21  1  0.66031135  0.66274312  0.57999026  1
  H  H22  1  0.67061277  0.82405476  0.60725253  1
  H  H23  1  0.37675811  0.82585705  0.50199226  1
  H  H24  1  0.36136123  0.67523292  0.47428090  1
  H  H25  1  0.49822143  0.73758602  0.35155565  1
  H  H26  1  0.01924496  0.73735182  0.76239148  1
  H  H27  1  0.16557817  0.82299489  0.91673538  1
  H  H28  1  0.14664911  0.66294453  0.90263880  1
  H  H29  1  0.86486400  0.84112117  0.01821354  1
  H  H30  1  0.84875981  0.69112916  0.00085982  1
  H  H31  1  0.98236939  0.77031944  0.14829435  1
  Zn  Zn32  1  0.50671075  0.99903830  0.00034460  1
  Zn  Zn33  1  0.99308307  0.49894468  0.50018344  1
  Hf  Hf34  1  0.00382036  0.99864232  0.49926873  1
  Hf  Hf35  1  0.49596082  0.49869982  0.99912178  1
  Cl  Cl36  1  0.47711153  0.27816062  0.92568461  1
  Cl  Cl37  1  0.12465776  0.01016310  0.21509289  1
  Cl  Cl38  1  0.70763135  0.99027119  0.37965280  1
  Cl  Cl39  1  0.98523739  0.21956729  0.57067695  1
  Cl  Cl40  1  0.29856579  0.00872422  0.62495052  1
  Cl  Cl41  1  0.88567791  0.98793693  0.78522399  1
  Cl  Cl42  1  0.51457215  0.71961773  0.07063244  1
  Cl  Cl43  1  0.61402933  0.48787783  0.28506184  1
  Cl  Cl44  1  0.20119540  0.50876150  0.12476221  1
  Cl  Cl45  1  0.02293926  0.77810215  0.42592823  1
  Cl  Cl46  1  0.37508418  0.51014440  0.71493977  1
  Cl  Cl47  1  0.79216901  0.49042642  0.87950954  1
