# generated using pymatgen
data_BaZnH12C2(NCl3)2
_symmetry_space_group_name_H-M   'P 1'
_cell_length_a   7.91855518
_cell_length_b   11.02142162
_cell_length_c   7.31478101
_cell_angle_alpha   87.11158830
_cell_angle_beta   89.99940737
_cell_angle_gamma   90.00194262
_symmetry_Int_Tables_number   1
_chemical_formula_structural   BaZnH12C2(NCl3)2
_chemical_formula_sum   'Ba2 Zn2 H24 C4 N4 Cl12'
_cell_volume   637.57723291
_cell_formula_units_Z   2
loop_
 _symmetry_equiv_pos_site_id
 _symmetry_equiv_pos_as_xyz
  1  'x, y, z'
loop_
 _atom_site_type_symbol
 _atom_site_label
 _atom_site_symmetry_multiplicity
 _atom_site_fract_x
 _atom_site_fract_y
 _atom_site_fract_z
 _atom_site_occupancy
  C  C0  1  0.40931840  0.25412807  0.42000803  1
  C  C1  1  0.91155463  0.23578043  0.07495758  1
  C  C2  1  0.58841121  0.73572621  0.57502025  1
  C  C3  1  0.09068293  0.75414014  0.92003892  1
  N  N4  1  0.57218093  0.24579295  0.51899493  1
  N  N5  1  0.07515085  0.26404037  0.98481460  1
  N  N6  1  0.42487337  0.76409015  0.48483394  1
  N  N7  1  0.92782087  0.74573982  0.01902460  1
  H  H8  1  0.43446393  0.25144394  0.27312964  1
  H  H9  1  0.33452745  0.17446720  0.46222050  1
  H  H10  1  0.34340714  0.33714779  0.45337675  1
  H  H11  1  0.63382287  0.16800046  0.48018851  1
  H  H12  1  0.64820750  0.32074045  0.48462736  1
  H  H13  1  0.55384423  0.23935102  0.66080901  1
  H  H14  1  0.92663495  0.24378526  0.22267226  1
  H  H15  1  0.87035229  0.14488814  0.04184397  1
  H  H16  1  0.81892276  0.30253998  0.02420523  1
  H  H17  1  0.16315941  0.19634683  0.01702693  1
  H  H18  1  0.11985701  0.34591954  0.03194546  1
  H  H19  1  0.06147235  0.27234028  0.84260414  1
  H  H20  1  0.57334907  0.74383396  0.72271650  1
  H  H21  1  0.62944611  0.64477650  0.54202425  1
  H  H22  1  0.68118169  0.80236955  0.52418067  1
  H  H23  1  0.38024535  0.84599104  0.53194704  1
  H  H24  1  0.33677232  0.69644312  0.51703030  1
  H  H25  1  0.43857654  0.77236847  0.34262792  1
  H  H26  1  0.06554863  0.75142270  0.77316250  1
  H  H27  1  0.15650951  0.83720707  0.95338066  1
  H  H28  1  0.16555292  0.67453452  0.96228509  1
  H  H29  1  0.85174277  0.82064536  0.98466233  1
  H  H30  1  0.86624330  0.66790948  0.98021387  1
  H  H31  1  0.94615999  0.73929935  0.16083690  1
  Zn  Zn32  1  0.49881321  0.99999999  0.00281501  1
  Zn  Zn33  1  0.00120198  0.49998935  0.50279287  1
  Ba  Ba34  1  0.99885996  0.00097432  0.50025640  1
  Ba  Ba35  1  0.50112713  0.50098479  0.00022624  1
  Cl  Cl36  1  0.49027636  0.22886274  0.94141302  1
  Cl  Cl37  1  0.22882859  0.01239404  0.16762791  1
  Cl  Cl38  1  0.66232744  0.01381181  0.29305397  1
  Cl  Cl39  1  0.99093720  0.27220190  0.56094847  1
  Cl  Cl40  1  0.33256068  0.98944522  0.71184422  1
  Cl  Cl41  1  0.76380187  0.98574081  0.82856485  1
  Cl  Cl42  1  0.50905015  0.77220556  0.06098634  1
  Cl  Cl43  1  0.73620613  0.48578278  0.32852238  1
  Cl  Cl44  1  0.16742995  0.48943190  0.21180670  1
  Cl  Cl45  1  0.00975963  0.72885798  0.44142227  1
  Cl  Cl46  1  0.27117801  0.51238548  0.66759283  1
  Cl  Cl47  1  0.83767216  0.51379943  0.79301247  1
