# generated using pymatgen
data_BiH12C2(I2N)3
_symmetry_space_group_name_H-M   'P 1'
_cell_length_a   8.40808102
_cell_length_b   12.67863224
_cell_length_c   7.98926694
_cell_angle_alpha   91.39941988
_cell_angle_beta   85.54297595
_cell_angle_gamma   88.96504657
_symmetry_Int_Tables_number   1
_chemical_formula_structural   BiH12C2(I2N)3
_chemical_formula_sum   'Bi2 H24 C4 I12 N6'
_cell_volume   848.68050117
_cell_formula_units_Z   2
loop_
 _symmetry_equiv_pos_site_id
 _symmetry_equiv_pos_as_xyz
  1  'x, y, z'
loop_
 _atom_site_type_symbol
 _atom_site_label
 _atom_site_symmetry_multiplicity
 _atom_site_fract_x
 _atom_site_fract_y
 _atom_site_fract_z
 _atom_site_occupancy
  C  C0  1  0.43203448  0.25233881  0.44600852  1
  C  C1  1  0.92093172  0.24882748  0.05351117  1
  C  C2  1  0.58141925  0.75317368  0.57072910  1
  C  C3  1  0.08658329  0.74439119  0.94676690  1
  N  N4  1  0.58435164  0.24479415  0.52716419  1
  N  N5  1  0.08136964  0.24957623  0.96236013  1
  N  N6  1  0.42226097  0.74783033  0.50321385  1
  N  N7  1  0.92475500  0.75361765  0.03401660  1
  H  H8  1  0.45710988  0.24694644  0.30943831  1
  H  H9  1  0.35708642  0.18681345  0.48744964  1
  H  H10  1  0.37098000  0.32708182  0.48414530  1
  H  H11  1  0.64354599  0.17372092  0.49108563  1
  H  H12  1  0.66146996  0.30484606  0.49317459  1
  H  H13  1  0.56553491  0.24794389  0.65861731  1
  H  H14  1  0.93471619  0.25232318  0.18874939  1
  H  H15  1  0.86133546  0.17622781  0.01943656  1
  H  H16  1  0.85310307  0.31769450  0.01641399  1
  H  H17  1  0.15131203  0.18634359  0.99645080  1
  H  H18  1  0.14126059  0.31780838  0.99137788  1
  H  H19  1  0.07307079  0.24533760  0.83210507  1
  H  H20  1  0.56565686  0.76147546  0.70775354  1
  H  H21  1  0.64853449  0.68032678  0.53442819  1
  H  H22  1  0.64341129  0.82137042  0.51809924  1
  H  H23  1  0.35124157  0.81300275  0.54089017  1
  H  H24  1  0.36255383  0.68070584  0.54584653  1
  H  H25  1  0.43187813  0.74432545  0.37157380  1
  H  H26  1  0.07451137  0.73690724  0.81149127  1
  H  H27  1  0.15536019  0.81495318  0.97396833  1
  H  H28  1  0.14532761  0.67356898  0.99011667  1
  H  H29  1  0.86521640  0.82124704  0.99907313  1
  H  H30  1  0.85757425  0.68882549  0.00471643  1
  H  H31  1  0.93083864  0.75505020  0.16382664  1
  N  N32  1  0.33111031  0.93427758  0.95838141  1
  N  N33  1  0.94919839  0.56893792  0.28306347  1
  Bi  Bi34  1  0.98492810  0.99337750  0.50954188  1
  Bi  Bi35  1  0.51274621  0.50918372  0.98681118  1
  I  I36  1  0.50164764  0.26513220  0.96281694  1
  I  I37  1  0.24381230  0.02861478  0.16869050  1
  I  I38  1  0.69799147  0.00685845  0.30993428  1
  I  I39  1  0.99874175  0.24045107  0.53896536  1
  I  I40  1  0.31111866  0.00347115  0.72468466  1
  I  I41  1  0.79055806  0.98495172  0.82790851  1
  I  I42  1  0.50321842  0.74660882  0.06597627  1
  I  I43  1  0.73291117  0.48939221  0.30938496  1
  I  I44  1  0.15775473  0.47289046  0.22737016  1
  I  I45  1  0.01407111  0.75614325  0.46155658  1
  I  I46  1  0.30959698  0.51208380  0.69134843  1
  I  I47  1  0.82428251  0.51830766  0.79986314  1
