# generated using pymatgen
data_ZnSnH12C2(NCl3)2
_symmetry_space_group_name_H-M   'P 1'
_cell_length_a   7.55675966
_cell_length_b   11.52584745
_cell_length_c   7.74524684
_cell_angle_alpha   90.50594350
_cell_angle_beta   90.01059867
_cell_angle_gamma   90.00029006
_symmetry_Int_Tables_number   1
_chemical_formula_structural   ZnSnH12C2(NCl3)2
_chemical_formula_sum   'Zn2 Sn2 H24 C4 N4 Cl12'
_cell_volume   674.56965448
_cell_formula_units_Z   2
loop_
 _symmetry_equiv_pos_site_id
 _symmetry_equiv_pos_as_xyz
  1  'x, y, z'
loop_
 _atom_site_type_symbol
 _atom_site_label
 _atom_site_symmetry_multiplicity
 _atom_site_fract_x
 _atom_site_fract_y
 _atom_site_fract_z
 _atom_site_occupancy
  C  C0  1  0.39133604  0.25065134  0.37991380  1
  C  C1  1  0.88334368  0.24330845  0.11948260  1
  C  C2  1  0.61677582  0.74323889  0.61943750  1
  C  C3  1  0.10853128  0.75069794  0.87981061  1
  N  N4  1  0.54639325  0.26188273  0.49571469  1
  N  N5  1  0.03752080  0.25216721  0.00202830  1
  N  N6  1  0.46250966  0.75221145  0.50205939  1
  N  N7  1  0.95358483  0.76183481  0.99571588  1
  H  H8  1  0.43703418  0.24609234  0.24593649  1
  H  H9  1  0.32270777  0.17046143  0.41284882  1
  H  H10  1  0.30450360  0.32543141  0.39891688  1
  H  H11  1  0.62831432  0.19031124  0.48058877  1
  H  H12  1  0.61951592  0.33658176  0.46758671  1
  H  H13  1  0.50954870  0.26566795  0.62576669  1
  H  H14  1  0.93068663  0.24394403  0.25321095  1
  H  H15  1  0.81102513  0.16342850  0.08971083  1
  H  H16  1  0.79883675  0.31896388  0.09929989  1
  H  H17  1  0.12521257  0.18377396  0.01694529  1
  H  H18  1  0.10574615  0.32922870  0.02796155  1
  H  H19  1  0.99976488  0.25212051  0.87185956  1
  H  H20  1  0.56954799  0.74386925  0.75318743  1
  H  H21  1  0.68896129  0.66332539  0.58958695  1
  H  H22  1  0.70136929  0.81884980  0.59924514  1
  H  H23  1  0.39438514  0.82929869  0.52806070  1
  H  H24  1  0.37475403  0.68385546  0.51697392  1
  H  H25  1  0.50016648  0.75217337  0.37187691  1
  H  H26  1  0.06269798  0.74616219  0.74585950  1
  H  H27  1  0.19531183  0.82550973  0.89880374  1
  H  H28  1  0.17727649  0.67052634  0.91263585  1
  H  H29  1  0.88037291  0.83651252  0.96766613  1
  H  H30  1  0.87171971  0.69023039  0.98060087  1
  H  H31  1  0.99054937  0.76561028  0.12574909  1
  Zn  Zn32  1  0.54735145  0.94785065  0.09555403  1
  Zn  Zn33  1  0.95264875  0.44783158  0.59553654  1
  Sn  Sn34  1  0.05568476  0.99741765  0.41896265  1
  Sn  Sn35  1  0.44432901  0.49741809  0.91904282  1
  Cl  Cl36  1  0.45824192  0.27791637  0.89768666  1
  Cl  Cl37  1  0.25400158  0.01046062  0.10732717  1
  Cl  Cl38  1  0.65450902  0.00646377  0.35847147  1
  Cl  Cl39  1  0.96596083  0.24873886  0.60270963  1
  Cl  Cl40  1  0.29204212  0.98638970  0.64898001  1
  Cl  Cl41  1  0.73856051  0.99086117  0.88298335  1
  Cl  Cl42  1  0.53398599  0.74876047  0.10272695  1
  Cl  Cl43  1  0.76144260  0.49085802  0.38289080  1
  Cl  Cl44  1  0.20797741  0.48637426  0.14896301  1
  Cl  Cl45  1  0.04180779  0.77791327  0.39765922  1
  Cl  Cl46  1  0.24599061  0.51046206  0.60735677  1
  Cl  Cl47  1  0.84548493  0.50643978  0.85840408  1
