# generated using pymatgen
data_ZnInH12C2(NCl3)2
_symmetry_space_group_name_H-M   'P 1'
_cell_length_a   7.81571750
_cell_length_b   10.78373204
_cell_length_c   7.33771074
_cell_angle_alpha   88.81779898
_cell_angle_beta   90.74674774
_cell_angle_gamma   90.31740353
_symmetry_Int_Tables_number   1
_chemical_formula_structural   ZnInH12C2(NCl3)2
_chemical_formula_sum   'Zn2 In2 H24 C4 N4 Cl12'
_cell_volume   618.24861510
_cell_formula_units_Z   2
loop_
 _symmetry_equiv_pos_site_id
 _symmetry_equiv_pos_as_xyz
  1  'x, y, z'
loop_
 _atom_site_type_symbol
 _atom_site_label
 _atom_site_symmetry_multiplicity
 _atom_site_fract_x
 _atom_site_fract_y
 _atom_site_fract_z
 _atom_site_occupancy
  C  C0  1  0.41843171  0.24731146  0.43686511  1
  C  C1  1  0.93205677  0.24583835  0.07228233  1
  C  C2  1  0.58155038  0.75265919  0.56315706  1
  C  C3  1  0.06793438  0.75415292  0.92770372  1
  N  N4  1  0.58254944  0.23891000  0.53931208  1
  N  N5  1  0.09256922  0.24594031  0.96706745  1
  N  N6  1  0.41742379  0.76113172  0.46066111  1
  N  N7  1  0.90742636  0.75407406  0.03294182  1
  H  H8  1  0.44604353  0.24750318  0.29138486  1
  H  H9  1  0.34128500  0.16608488  0.47280296  1
  H  H10  1  0.35464616  0.33283692  0.47323972  1
  H  H11  1  0.64175149  0.15607451  0.51120042  1
  H  H12  1  0.66260178  0.31122412  0.50010204  1
  H  H13  1  0.56422654  0.24332611  0.67978488  1
  H  H14  1  0.96599991  0.24390182  0.21715042  1
  H  H15  1  0.85586891  0.16435403  0.03761489  1
  H  H16  1  0.86210333  0.33083293  0.03909363  1
  H  H17  1  0.16030565  0.16449022  0.99284928  1
  H  H18  1  0.16924560  0.31967705  0.00711259  1
  H  H19  1  0.06916972  0.25659476  0.82804983  1
  H  H20  1  0.55391295  0.75250225  0.70865461  1
  H  H21  1  0.64534056  0.66715413  0.52680696  1
  H  H22  1  0.65868573  0.83391363  0.52722331  1
  H  H23  1  0.35823513  0.84388111  0.48881417  1
  H  H24  1  0.33737306  0.68874936  0.49991400  1
  H  H25  1  0.43575614  0.75666288  0.32025531  1
  H  H26  1  0.03400837  0.75608965  0.78285095  1
  H  H27  1  0.14414281  0.83564521  0.96238286  1
  H  H28  1  0.13788854  0.66916880  0.96091965  1
  H  H29  1  0.83969963  0.83551083  0.00714036  1
  H  H30  1  0.83074796  0.68030936  0.99288815  1
  H  H31  1  0.93082758  0.74341789  0.17193292  1
  Zn  Zn32  1  0.50002307  1.00004753  -0.00000078  1
  Zn  Zn33  1  0.00066213  0.50002520  0.49997405  1
  In  In34  1  0.00000860  1.00000806  0.49999992  1
  In  In35  1  0.50009734  0.50000345  0.00010068  1
  Cl  Cl36  1  0.50314313  0.26618406  0.95859046  1
  Cl  Cl37  1  0.24145341  0.00488825  0.17403002  1
  Cl  Cl38  1  0.66572254  0.00529903  0.27135087  1
  Cl  Cl39  1  0.99358239  0.29887770  0.54752687  1
  Cl  Cl40  1  0.33433217  0.99470801  0.72866095  1
  Cl  Cl41  1  0.75862302  0.99512945  0.82597491  1
  Cl  Cl42  1  0.49678658  0.73382371  0.04137700  1
  Cl  Cl43  1  0.69243755  0.48334866  0.29021043  1
  Cl  Cl44  1  0.22470671  0.48299336  0.18852353  1
  Cl  Cl45  1  0.00625662  0.70119560  0.45244417  1
  Cl  Cl46  1  0.30721836  0.51659660  0.70965884  1
  Cl  Cl47  1  0.77516199  0.51702597  0.81171525  1
