# generated using pymatgen
data_ZnCdH12C2(NCl3)2
_symmetry_space_group_name_H-M   'P 1'
_cell_length_a   6.85570491
_cell_length_b   11.79910534
_cell_length_c   7.83810918
_cell_angle_alpha   90.92838244
_cell_angle_beta   89.99551100
_cell_angle_gamma   90.00925489
_symmetry_Int_Tables_number   1
_chemical_formula_structural   ZnCdH12C2(NCl3)2
_chemical_formula_sum   'Zn2 Cd2 H24 C4 N4 Cl12'
_cell_volume   633.95069453
_cell_formula_units_Z   2
loop_
 _symmetry_equiv_pos_site_id
 _symmetry_equiv_pos_as_xyz
  1  'x, y, z'
loop_
 _atom_site_type_symbol
 _atom_site_label
 _atom_site_symmetry_multiplicity
 _atom_site_fract_x
 _atom_site_fract_y
 _atom_site_fract_z
 _atom_site_occupancy
  C  C0  1  0.38316916  0.24794819  0.35752111  1
  C  C1  1  0.88831002  0.24533480  0.14164282  1
  C  C2  1  0.61154350  0.74526520  0.64179417  1
  C  C3  1  0.11699836  0.74802616  0.85764781  1
  N  N4  1  0.53549023  0.26229959  0.48930620  1
  N  N5  1  0.04085871  0.26384313  0.01180613  1
  N  N6  1  0.45908396  0.76395319  0.51196382  1
  N  N7  1  0.96456836  0.76222281  0.98939470  1
  H  H8  1  0.45243148  0.24285873  0.23166844  1
  H  H9  1  0.30354501  0.16988613  0.38300979  1
  H  H10  1  0.28602329  0.32137633  0.36400787  1
  H  H11  1  0.63883085  0.19862775  0.48120946  1
  H  H12  1  0.60774669  0.33973751  0.47379362  1
  H  H13  1  0.48128124  0.25886201  0.61419940  1
  H  H14  1  0.95675178  0.24193188  0.26773959  1
  H  H15  1  0.81246239  0.16615743  0.11108773  1
  H  H16  1  0.78716042  0.31693117  0.13899807  1
  H  H17  1  0.14842426  0.20230599  0.01387541  1
  H  H18  1  0.10799448  0.34254125  0.03412484  1
  H  H19  1  0.98635548  0.26200757  0.88701458  1
  H  H20  1  0.54304667  0.74183680  0.76787927  1
  H  H21  1  0.68719054  0.66604770  0.61115102  1
  H  H22  1  0.71288580  0.81678460  0.63925534  1
  H  H23  1  0.39213057  0.84267564  0.53432604  1
  H  H24  1  0.35136017  0.70248074  0.51393383  1
  H  H25  1  0.51365182  0.76211522  0.38717650  1
  H  H26  1  0.04779448  0.74293581  0.73177400  1
  H  H27  1  0.21402380  0.82151596  0.86422194  1
  H  H28  1  0.19672316  0.67000571  0.88308692  1
  H  H29  1  0.89220567  0.83959524  0.97391972  1
  H  H30  1  0.86136222  0.69845612  0.98122905  1
  H  H31  1  0.01873234  0.75879386  0.11431064  1
  Zn  Zn32  1  0.54836578  0.94493234  0.10449682  1
  Zn  Zn33  1  0.95163890  0.44496816  0.60442250  1
  Cd  Cd34  1  0.04743291  0.95512607  0.39336563  1
  Cd  Cd35  1  0.45249218  0.45510448  0.89326970  1
  Cl  Cl36  1  0.47997367  0.24677500  0.88192363  1
  Cl  Cl37  1  0.22979056  0.01159289  0.11549939  1
  Cl  Cl38  1  0.69447822  0.01198394  0.36350184  1
  Cl  Cl39  1  0.97596421  0.25429852  0.61766769  1
  Cl  Cl40  1  0.26709288  1.00053203  0.62662375  1
  Cl  Cl41  1  0.75052294  0.99212183  0.89507140  1
  Cl  Cl42  1  0.52407551  0.75426317  0.11783346  1
  Cl  Cl43  1  0.74951747  0.49218431  0.39503396  1
  Cl  Cl44  1  0.23280881  0.50045348  0.12654500  1
  Cl  Cl45  1  0.01999550  0.74678696  0.38206802  1
  Cl  Cl46  1  0.27023009  0.51162947  0.61543743  1
  Cl  Cl47  1  0.80550719  0.51196542  0.86346655  1
