# generated using pymatgen
data_ZnH12PdC2(NCl3)2
_symmetry_space_group_name_H-M   'P 1'
_cell_length_a   7.28090187
_cell_length_b   10.57159981
_cell_length_c   7.92659690
_cell_angle_alpha   93.69774955
_cell_angle_beta   89.99639631
_cell_angle_gamma   89.99965563
_symmetry_Int_Tables_number   1
_chemical_formula_structural   ZnH12PdC2(NCl3)2
_chemical_formula_sum   'Zn2 H24 Pd2 C4 N4 Cl12'
_cell_volume   608.84618180
_cell_formula_units_Z   2
loop_
 _symmetry_equiv_pos_site_id
 _symmetry_equiv_pos_as_xyz
  1  'x, y, z'
loop_
 _atom_site_type_symbol
 _atom_site_label
 _atom_site_symmetry_multiplicity
 _atom_site_fract_x
 _atom_site_fract_y
 _atom_site_fract_z
 _atom_site_occupancy
  C  C0  1  0.39478866  0.25004772  0.35845085  1
  C  C1  1  0.94761692  0.24845440  0.13163028  1
  C  C2  1  0.55235339  0.74843573  0.63173801  1
  C  C3  1  0.10520112  0.75003217  0.85850325  1
  N  N4  1  0.49604183  0.27005483  0.51931591  1
  N  N5  1  0.06428745  0.23981699  0.97808341  1
  N  N6  1  0.43573209  0.73987765  0.47817304  1
  N  N7  1  0.00397945  0.76999842  0.01940319  1
  H  H8  1  0.49343322  0.24470245  0.25418388  1
  H  H9  1  0.31761858  0.16171653  0.36044809  1
  H  H10  1  0.30470879  0.33149282  0.34547744  1
  H  H11  1  0.59076034  0.19878568  0.53383724  1
  H  H12  1  0.56883890  0.35470890  0.51802520  1
  H  H13  1  0.41288726  0.27518482  0.62524839  1
  H  H14  1  0.03632938  0.26171293  0.24241760  1
  H  H15  1  0.86941490  0.16065938  0.13701158  1
  H  H16  1  0.85487787  0.32924161  0.12583367  1
  H  H17  1  0.15415884  0.16342405  0.98009867  1
  H  H18  1  0.14369822  0.32142683  0.97392768  1
  H  H19  1  0.98773328  0.22833780  0.86756976  1
  H  H20  1  0.46361796  0.76178455  0.74250784  1
  H  H21  1  0.63039498  0.66057540  0.63715558  1
  H  H22  1  0.64524181  0.82914160  0.62594053  1
  H  H23  1  0.35642144  0.82153508  0.47401924  1
  H  H24  1  0.34577240  0.66353329  0.48016425  1
  H  H25  1  0.51231566  0.72836136  0.36767226  1
  H  H26  1  0.00653133  0.74467080  0.75426828  1
  H  H27  1  0.19522969  0.83150178  0.84551560  1
  H  H28  1  0.18242053  0.66171830  0.86046229  1
  H  H29  1  0.93114758  0.85463949  0.01815323  1
  H  H30  1  0.90930100  0.69870648  0.03393572  1
  H  H31  1  0.08716142  0.77513169  0.12530771  1
  Zn  Zn32  1  0.56505973  0.94800958  0.08401295  1
  Zn  Zn33  1  0.93495174  0.44804073  0.58398242  1
  Pd  Pd34  1  0.97240422  0.00392202  0.48398811  1
  Pd  Pd35  1  0.52758719  0.50390919  0.98397175  1
  Cl  Cl36  1  0.49966022  0.29073729  0.91632914  1
  Cl  Cl37  1  0.27133640  0.99632468  0.10636263  1
  Cl  Cl38  1  0.67603193  0.00093816  0.36110042  1
  Cl  Cl39  1  0.92665191  0.21880854  0.58975292  1
  Cl  Cl40  1  0.25301164  0.00800490  0.61766884  1
  Cl  Cl41  1  0.76432221  0.99356528  0.88870832  1
  Cl  Cl42  1  0.57331695  0.71878175  0.08980625  1
  Cl  Cl43  1  0.73573216  0.49361956  0.38867333  1
  Cl  Cl44  1  0.24696113  0.50796696  0.11764270  1
  Cl  Cl45  1  0.00034104  0.79074251  0.41640978  1
  Cl  Cl46  1  0.22867126  0.49635113  0.60633035  1
  Cl  Cl47  1  0.82396771  0.50094445  0.86107705  1
