# generated using pymatgen
data_ZrZnH12C2(NCl3)2
_symmetry_space_group_name_H-M   'P 1'
_cell_length_a   7.72620284
_cell_length_b   11.30033327
_cell_length_c   7.77776392
_cell_angle_alpha   99.88561458
_cell_angle_beta   89.99689073
_cell_angle_gamma   90.00460461
_symmetry_Int_Tables_number   1
_chemical_formula_structural   ZrZnH12C2(NCl3)2
_chemical_formula_sum   'Zr2 Zn2 H24 C4 N4 Cl12'
_cell_volume   668.98373640
_cell_formula_units_Z   2
loop_
 _symmetry_equiv_pos_site_id
 _symmetry_equiv_pos_as_xyz
  1  'x, y, z'
loop_
 _atom_site_type_symbol
 _atom_site_label
 _atom_site_symmetry_multiplicity
 _atom_site_fract_x
 _atom_site_fract_y
 _atom_site_fract_z
 _atom_site_occupancy
  C  C0  1  0.41616991  0.24611552  0.39712636  1
  C  C1  1  0.91007960  0.24649129  0.10370993  1
  C  C2  1  0.58982015  0.74655274  0.60381934  1
  C  C3  1  0.08400463  0.74637496  0.89718104  1
  N  N4  1  0.56819096  0.26528183  0.51553033  1
  N  N5  1  0.05985075  0.24270439  0.98318413  1
  N  N6  1  0.44005104  0.74270105  0.48329544  1
  N  N7  1  0.93191808  0.76522413  0.01554094  1
  H  H8  1  0.46190120  0.23472888  0.26200994  1
  H  H9  1  0.34955278  0.16495963  0.41968934  1
  H  H10  1  0.33054899  0.32422736  0.42579941  1
  H  H11  1  0.65149681  0.19209933  0.49037607  1
  H  H12  1  0.63536930  0.34184402  0.49983931  1
  H  H13  1  0.53157452  0.27444346  0.64632997  1
  H  H14  1  0.95897168  0.25670484  0.23756012  1
  H  H15  1  0.83665167  0.16276550  0.07096218  1
  H  H16  1  0.82962326  0.32340931  0.08845775  1
  H  H17  1  0.14093837  0.17150360  0.99245642  1
  H  H18  1  0.13084033  0.32218781  0.01254955  1
  H  H19  1  0.02116285  0.23409799  0.85298245  1
  H  H20  1  0.54093195  0.75688886  0.73768741  1
  H  H21  1  0.66320378  0.66280725  0.57120320  1
  H  H22  1  0.67031704  0.82343267  0.58842477  1
  H  H23  1  0.36906325  0.82217803  0.51259928  1
  H  H24  1  0.35896246  0.67149935  0.49264843  1
  H  H25  1  0.47874251  0.73403954  0.35308719  1
  H  H26  1  0.03832090  0.73514109  0.76206362  1
  H  H27  1  0.16946684  0.82456749  0.92611113  1
  H  H28  1  0.15077821  0.66523314  0.91951417  1
  H  H29  1  0.86452305  0.84171414  -0.00000627  1
  H  H30  1  0.84881587  0.69191618  0.99022167  1
  H  H31  1  0.96849312  0.77432107  0.14634585  1
  Zn  Zn32  1  0.50484800  0.99896086  0.00097596  1
  Zn  Zn33  1  0.99512786  0.49903713  0.50105387  1
  Zr  Zr34  1  0.00206560  0.99915473  0.49888175  1
  Zr  Zr35  1  0.49787344  0.49914622  0.99890863  1
  Cl  Cl36  1  0.47977376  0.27648351  0.92184924  1
  Cl  Cl37  1  0.12825983  0.01362748  0.21154730  1
  Cl  Cl38  1  0.70742231  0.99428659  0.37279253  1
  Cl  Cl39  1  0.98509895  0.22234496  0.57490149  1
  Cl  Cl40  1  0.29457331  0.00562800  0.63230540  1
  Cl  Cl41  1  0.87729941  0.98547010  0.78765200  1
  Cl  Cl42  1  0.51495123  0.72232211  0.07498779  1
  Cl  Cl43  1  0.62257788  0.48544948  0.28769623  1
  Cl  Cl44  1  0.20531764  0.50565339  0.13222871  1
  Cl  Cl45  1  0.02017905  0.77649075  0.42184364  1
  Cl  Cl46  1  0.37175832  0.51357588  0.71153124  1
  Cl  Cl47  1  0.79256128  0.49429067  0.87284033  1
