# generated using pymatgen
data_SrZnH12C2(NCl3)2
_symmetry_space_group_name_H-M   'P 1'
_cell_length_a   7.73116388
_cell_length_b   10.71315496
_cell_length_c   7.30896254
_cell_angle_alpha   88.16023797
_cell_angle_beta   89.99289707
_cell_angle_gamma   90.00255031
_symmetry_Int_Tables_number   1
_chemical_formula_structural   SrZnH12C2(NCl3)2
_chemical_formula_sum   'Sr2 Zn2 H24 C4 N4 Cl12'
_cell_volume   605.05390802
_cell_formula_units_Z   2
loop_
 _symmetry_equiv_pos_site_id
 _symmetry_equiv_pos_as_xyz
  1  'x, y, z'
loop_
 _atom_site_type_symbol
 _atom_site_label
 _atom_site_symmetry_multiplicity
 _atom_site_fract_x
 _atom_site_fract_y
 _atom_site_fract_z
 _atom_site_occupancy
  C  C0  1  0.41140432  0.25178835  0.42354366  1
  C  C1  1  0.91182159  0.24822322  0.07667224  1
  C  C2  1  0.58859485  0.74821491  0.57646868  1
  C  C3  1  0.08818075  0.75178075  0.92334048  1
  N  N4  1  0.57402354  0.24560747  0.52931438  1
  N  N5  1  0.07418045  0.25427729  0.97041225  1
  N  N6  1  0.42597544  0.75439727  0.47069831  1
  N  N7  1  0.92582235  0.74572328  0.02960079  1
  H  H8  1  0.44308249  0.25259030  0.27785650  1
  H  H9  1  0.33676926  0.16796496  0.45744406  1
  H  H10  1  0.33984532  0.33525159  0.45877522  1
  H  H11  1  0.64168016  0.16671042  0.49290145  1
  H  H12  1  0.65068876  0.32311405  0.49896627  1
  H  H13  1  0.55078191  0.23998888  0.67016105  1
  H  H14  1  0.94391350  0.24736885  0.22226864  1
  H  H15  1  0.84000205  0.16484368  0.04165052  1
  H  H16  1  0.83727596  0.33213728  0.04308614  1
  H  H17  1  0.15081851  0.17674117  0.00060031  1
  H  H18  1  0.14202072  0.33314424  0.00650935  1
  H  H19  1  0.05059348  0.25985449  0.82961224  1
  H  H20  1  0.55691670  0.74741442  0.72215596  1
  H  H21  1  0.66015153  0.66475041  0.54123844  1
  H  H22  1  0.66323201  0.83203695  0.54256703  1
  H  H23  1  0.35832055  0.83329504  0.50711075  1
  H  H24  1  0.34930898  0.67689143  0.50104672  1
  H  H25  1  0.44921717  0.76001531  0.32985140  1
  H  H26  1  0.05608891  0.75263656  0.77774425  1
  H  H27  1  0.15999864  0.83516046  0.95836469  1
  H  H28  1  0.16272832  0.66786701  0.95692420  1
  H  H29  1  0.84918189  0.82325850  0.99941413  1
  H  H30  1  0.85798410  0.66685556  0.99350192  1
  H  H31  1  0.94940917  0.74014547  0.17040055  1
  Zn  Zn32  1  0.50000177  0.00000195  0.00000471  1
  Zn  Zn33  1  0.00000084  0.50000153  0.50000414  1
  Sr  Sr34  1  0.00000008  0.00000187  0.50000567  1
  Sr  Sr35  1  0.50000080  0.50000217  0.00000509  1
  Cl  Cl36  1  0.48930292  0.23344665  0.94997736  1
  Cl  Cl37  1  0.22738709  0.00785143  0.18266846  1
  Cl  Cl38  1  0.68107427  0.01123930  0.28717746  1
  Cl  Cl39  1  0.98901990  0.26655577  0.55006946  1
  Cl  Cl40  1  0.31892621  0.98876509  0.71283599  1
  Cl  Cl41  1  0.77261548  0.99215132  0.81734536  1
  Cl  Cl42  1  0.51069949  0.76655727  0.05003568  1
  Cl  Cl43  1  0.72736164  0.49212955  0.31731311  1
  Cl  Cl44  1  0.18100635  0.48871056  0.21280204  1
  Cl  Cl45  1  0.01097987  0.73344756  0.44994352  1
  Cl  Cl46  1  0.27263928  0.50787396  0.68269768  1
  Cl  Cl47  1  0.81899438  0.51129274  0.78720831  1
