# generated using pymatgen
data_ZnGeH12C2(NCl3)2
_symmetry_space_group_name_H-M   'P 1'
_cell_length_a   7.55624536
_cell_length_b   11.34283795
_cell_length_c   7.69184283
_cell_angle_alpha   90.72791728
_cell_angle_beta   89.70704596
_cell_angle_gamma   89.96363990
_symmetry_Int_Tables_number   1
_chemical_formula_structural   ZnGeH12C2(NCl3)2
_chemical_formula_sum   'Zn2 Ge2 H24 C4 N4 Cl12'
_cell_volume   659.20022666
_cell_formula_units_Z   2
loop_
 _symmetry_equiv_pos_site_id
 _symmetry_equiv_pos_as_xyz
  1  'x, y, z'
loop_
 _atom_site_type_symbol
 _atom_site_label
 _atom_site_symmetry_multiplicity
 _atom_site_fract_x
 _atom_site_fract_y
 _atom_site_fract_z
 _atom_site_occupancy
  C  C0  1  0.40708654  0.25349969  0.38076976  1
  C  C1  1  0.89394198  0.24080311  0.11848942  1
  C  C2  1  0.60567865  0.74133282  0.61927439  1
  C  C3  1  0.09324992  0.75363088  0.88256996  1
  N  N4  1  0.56273770  0.26328191  0.49619996  1
  N  N5  1  0.04630392  0.24887948  0.99709652  1
  N  N6  1  0.45440149  0.74838307  0.49793494  1
  N  N7  1  0.93741295  0.76446930  -0.00082021  1
  H  H8  1  0.45301312  0.24872919  0.24570992  1
  H  H9  1  0.33613725  0.17295052  0.41370052  1
  H  H10  1  0.32235310  0.33057306  0.40088861  1
  H  H11  1  0.64197296  0.18899462  0.48186056  1
  H  H12  1  0.63843338  0.33761944  0.46630067  1
  H  H13  1  0.52600981  0.26932957  0.62703331  1
  H  H14  1  0.94353593  0.24244558  0.25204189  1
  H  H15  1  0.82203072  0.15907445  0.09099101  1
  H  H16  1  0.80863459  0.31726120  0.09836806  1
  H  H17  1  0.13476109  0.18009463  0.01408832  1
  H  H18  1  0.11412339  0.32758498  0.01881138  1
  H  H19  1  0.00747258  0.24609701  0.86643712  1
  H  H20  1  0.55486621  0.74338188  0.75287586  1
  H  H21  1  0.67862918  0.65974718  0.59250089  1
  H  H22  1  0.69046565  0.81797335  0.59844053  1
  H  H23  1  0.38563519  0.82690308  0.51916482  1
  H  H24  1  0.36642922  0.67932423  0.51541944  1
  H  H25  1  0.49423640  0.74541121  0.36721421  1
  H  H26  1  0.04748820  0.74816718  0.74796371  1
  H  H27  1  0.17812305  0.83064254  0.90100680  1
  H  H28  1  0.16390686  0.67313020  0.91597005  1
  H  H29  1  0.86229117  0.83892321  0.96898582  1
  H  H30  1  0.85752669  0.69055421  0.98603807  1
  H  H31  1  0.97394254  0.77081627  0.12966909  1
  Zn  Zn32  1  0.54418611  0.94594129  0.10487309  1
  Zn  Zn33  1  0.95438554  0.44625091  0.60571653  1
  Ge  Ge34  1  0.05934471  0.99403171  0.41588065  1
  Ge  Ge35  1  0.44041301  0.49417825  0.91253554  1
  Cl  Cl36  1  0.46395465  0.28747208  0.89750420  1
  Cl  Cl37  1  0.24986154  0.01049419  0.12444375  1
  Cl  Cl38  1  0.66519867  0.00247762  0.36278790  1
  Cl  Cl39  1  0.97609794  0.24459595  0.59816146  1
  Cl  Cl40  1  0.27370196  0.99006358  0.63413349  1
  Cl  Cl41  1  0.71893693  0.99465695  0.87997525  1
  Cl  Cl42  1  0.52250436  0.74429814  0.09798760  1
  Cl  Cl43  1  0.78087643  0.49483294  0.38155941  1
  Cl  Cl44  1  0.22675360  0.48979588  0.13356523  1
  Cl  Cl45  1  0.03727843  0.78731505  0.39974421  1
  Cl  Cl46  1  0.24889683  0.51017597  0.62312190  1
  Cl  Cl47  1  0.83480158  0.50348871  0.86531099  1
