# generated using pymatgen
data_ZnGaH12C2(NCl3)2
_symmetry_space_group_name_H-M   'P 1'
_cell_length_a   7.97321421
_cell_length_b   10.32652819
_cell_length_c   7.42821648
_cell_angle_alpha   88.98048843
_cell_angle_beta   87.64525067
_cell_angle_gamma   89.81282107
_symmetry_Int_Tables_number   1
_chemical_formula_structural   ZnGaH12C2(NCl3)2
_chemical_formula_sum   'Zn2 Ga2 H24 C4 N4 Cl12'
_cell_volume   610.99166489
_cell_formula_units_Z   2
loop_
 _symmetry_equiv_pos_site_id
 _symmetry_equiv_pos_as_xyz
  1  'x, y, z'
loop_
 _atom_site_type_symbol
 _atom_site_label
 _atom_site_symmetry_multiplicity
 _atom_site_fract_x
 _atom_site_fract_y
 _atom_site_fract_z
 _atom_site_occupancy
  C  C0  1  0.42462012  0.24178276  0.44172250  1
  C  C1  1  0.94599648  0.24461557  0.07175800  1
  C  C2  1  0.57366681  0.75915876  0.55398203  1
  C  C3  1  0.05817514  0.75285840  0.93442917  1
  N  N4  1  0.58136929  0.22896911  0.54113015  1
  N  N5  1  0.10593730  0.24461551  0.96248614  1
  N  N6  1  0.41895594  0.76730086  0.45100669  1
  N  N7  1  0.90342987  0.75982242  0.05151112  1
  H  H8  1  0.45685043  0.23860782  0.29772019  1
  H  H9  1  0.34253864  0.16126421  0.48168400  1
  H  H10  1  0.36545706  0.33405160  0.47510458  1
  H  H11  1  0.63453296  0.13868835  0.52312023  1
  H  H12  1  0.66619345  0.29847936  0.49292755  1
  H  H13  1  0.56122706  0.24157731  0.67936245  1
  H  H14  1  0.97509993  0.23597880  0.21409597  1
  H  H15  1  0.86887616  0.16351389  0.03231429  1
  H  H16  1  0.88046963  0.33604864  0.04816529  1
  H  H17  1  0.16763164  0.15649171  0.97335842  1
  H  H18  1  0.18455144  0.31575237  0.00901750  1
  H  H19  1  0.08525624  0.26404848  0.82701837  1
  H  H20  1  0.54084605  0.76934630  0.69695590  1
  H  H21  1  0.63114400  0.66515465  0.52857735  1
  H  H22  1  0.65752286  0.83715912  0.50807074  1
  H  H23  1  0.36422073  0.85773902  0.46150119  1
  H  H24  1  0.33242704  0.69882237  0.49810067  1
  H  H25  1  0.44328260  0.75073563  0.31450801  1
  H  H26  1  0.02308516  0.75778549  0.79373016  1
  H  H27  1  0.13964802  0.83377087  0.96458395  1
  H  H28  1  0.12104315  0.66084679  0.96153783  1
  H  H29  1  0.84264943  0.84798164  0.03520403  1
  H  H30  1  0.81960843  0.68861669  0.01797975  1
  H  H31  1  0.92943119  0.74641992  0.18675353  1
  Zn  Zn32  1  0.49847964  0.99380684  0.99881270  1
  Zn  Zn33  1  0.89203998  0.50248916  0.51881662  1
  Ga  Ga34  1  0.99403513  0.00196337  0.50393723  1
  Ga  Ga35  1  0.46758299  0.50351788  0.95133391  1
  Cl  Cl36  1  0.52651899  0.28312148  0.96078738  1
  Cl  Cl37  1  0.24986893  0.99812935  0.19822367  1
  Cl  Cl38  1  0.67603911  0.99944138  0.24532070  1
  Cl  Cl39  1  0.00485097  0.30114361  0.55420942  1
  Cl  Cl40  1  0.32550215  0.00074340  0.75113722  1
  Cl  Cl41  1  0.75363971  0.99674917  0.80069096  1
  Cl  Cl42  1  0.50352960  0.72078969  0.03046886  1
  Cl  Cl43  1  0.69912736  0.47998868  0.30874795  1
  Cl  Cl44  1  0.26057886  0.48211870  0.17138659  1
  Cl  Cl45  1  0.01793269  0.69632308  0.45810413  1
  Cl  Cl46  1  0.32120171  0.51788729  0.70300747  1
  Cl  Cl47  1  0.76335168  0.52386080  0.81589404  1
