# generated using pymatgen
data_GaBiH12C2(NCl3)2
_symmetry_space_group_name_H-M   'P 1'
_cell_length_a   7.89888991
_cell_length_b   11.14095233
_cell_length_c   7.56884824
_cell_angle_alpha   92.15705638
_cell_angle_beta   90.00245082
_cell_angle_gamma   89.97444123
_symmetry_Int_Tables_number   1
_chemical_formula_structural   GaBiH12C2(NCl3)2
_chemical_formula_sum   'Ga2 Bi2 H24 C4 N4 Cl12'
_cell_volume   665.59535751
_cell_formula_units_Z   2
loop_
 _symmetry_equiv_pos_site_id
 _symmetry_equiv_pos_as_xyz
  1  'x, y, z'
loop_
 _atom_site_type_symbol
 _atom_site_label
 _atom_site_symmetry_multiplicity
 _atom_site_fract_x
 _atom_site_fract_y
 _atom_site_fract_z
 _atom_site_occupancy
  C  C0  1  0.39432779  0.25040361  0.41249284  1
  C  C1  1  0.89534478  0.24980828  0.08844672  1
  C  C2  1  0.60567030  0.74960186  0.58751778  1
  C  C3  1  0.10465944  0.75019276  0.91156579  1
  N  N4  1  0.54875357  0.25141407  0.52363420  1
  N  N5  1  0.04920314  0.24857977  0.97647387  1
  N  N6  1  0.45124313  0.74859235  0.47637863  1
  N  N7  1  0.95080305  0.75141795  0.02354136  1
  H  H8  1  0.43212185  0.24814161  0.27347168  1
  H  H9  1  0.32117770  0.17030701  0.44004428  1
  H  H10  1  0.32106474  0.33159864  0.44380205  1
  H  H11  1  0.62062222  0.17504118  0.49400399  1
  H  H12  1  0.62136945  0.32619450  0.49709265  1
  H  H13  1  0.51982503  0.25345475  0.65829186  1
  H  H14  1  0.93393550  0.25207716  0.22726758  1
  H  H15  1  0.82185893  0.16868815  0.05769667  1
  H  H16  1  0.82211793  0.32998812  0.06132822  1
  H  H17  1  0.12187496  0.17373176  0.00265713  1
  H  H18  1  0.12121591  0.32487581  0.00563084  1
  H  H19  1  0.01957417  0.24652159  0.84192843  1
  H  H20  1  0.56787586  0.75186669  0.72654023  1
  H  H21  1  0.67893061  0.66840581  0.55621190  1
  H  H22  1  0.67882185  0.82969714  0.55996457  1
  H  H23  1  0.37937588  0.82496475  0.50600828  1
  H  H24  1  0.37862790  0.67381177  0.50291887  1
  H  H25  1  0.48017255  0.74655194  0.34171930  1
  H  H26  1  0.06606711  0.74792595  0.77274595  1
  H  H27  1  0.17814478  0.83131301  0.94231837  1
  H  H28  1  0.17788775  0.67001288  0.93868010  1
  H  H29  1  0.87812804  0.82626477  0.99736015  1
  H  H30  1  0.87879201  0.67512075  0.99438319  1
  H  H31  1  0.98043305  0.75347552  0.15808594  1
  Ga  Ga32  1  0.50000256  0.00000246  0.00000973  1
  Ga  Ga33  1  0.99999841  0.50000218  0.49999821  1
  Bi  Bi34  1  0.00000089  0.00000155  0.50000869  1
  Bi  Bi35  1  0.49999891  0.50000441  0.00000228  1
  Cl  Cl36  1  0.47271287  0.25753745  0.93822477  1
  Cl  Cl37  1  0.17142212  0.01665479  0.18870989  1
  Cl  Cl38  1  0.69716284  0.00829149  0.32855168  1
  Cl  Cl39  1  0.97211562  0.24243349  0.56224770  1
  Cl  Cl40  1  0.30283799  0.99171421  0.67146628  1
  Cl  Cl41  1  0.82858390  0.98334453  0.81130725  1
  Cl  Cl42  1  0.52729136  0.74247330  0.06178775  1
  Cl  Cl43  1  0.67125315  0.48323666  0.31138432  1
  Cl  Cl44  1  0.19713016  0.49182995  0.17133071  1
  Cl  Cl45  1  0.02788397  0.75756795  0.43776793  1
  Cl  Cl46  1  0.32874237  0.51676841  0.68861898  1
  Cl  Cl47  1  0.80286566  0.50817354  0.82867700  1
