# generated using pymatgen
data_TlGaH12C2(NCl3)2
_symmetry_space_group_name_H-M   'P 1'
_cell_length_a   7.80885185
_cell_length_b   10.99052436
_cell_length_c   7.43586230
_cell_angle_alpha   85.31817880
_cell_angle_beta   89.98995448
_cell_angle_gamma   90.03077414
_symmetry_Int_Tables_number   1
_chemical_formula_structural   TlGaH12C2(NCl3)2
_chemical_formula_sum   'Tl2 Ga2 H24 C4 N4 Cl12'
_cell_volume   636.04133994
_cell_formula_units_Z   2
loop_
 _symmetry_equiv_pos_site_id
 _symmetry_equiv_pos_as_xyz
  1  'x, y, z'
loop_
 _atom_site_type_symbol
 _atom_site_label
 _atom_site_symmetry_multiplicity
 _atom_site_fract_x
 _atom_site_fract_y
 _atom_site_fract_z
 _atom_site_occupancy
  C  C0  1  0.39891603  0.24977203  0.41262522  1
  C  C1  1  0.89969956  0.25023821  0.08810824  1
  C  C2  1  0.60108118  0.75023274  0.58738757  1
  C  C3  1  0.10030542  0.74976386  0.91190296  1
  N  N4  1  0.55638321  0.24585545  0.52390678  1
  N  N5  1  0.05666745  0.25407557  0.97599331  1
  N  N6  1  0.44361414  0.75415034  0.47610607  1
  N  N7  1  0.94333731  0.74592386  0.02401804  1
  H  H8  1  0.43534140  0.25166359  0.27042826  1
  H  H9  1  0.32522929  0.16693152  0.44874623  1
  H  H10  1  0.32512279  0.33052067  0.43928219  1
  H  H11  1  0.62806612  0.17045183  0.49709305  1
  H  H12  1  0.63049454  0.32371408  0.49386807  1
  H  H13  1  0.52821226  0.23869942  0.66202810  1
  H  H14  1  0.93677881  0.24832668  0.23010011  1
  H  H15  1  0.82553365  0.16951913  0.06185896  1
  H  H16  1  0.82609431  0.33312477  0.05244002  1
  H  H17  1  0.13072075  0.17621042  0.00577857  1
  H  H18  1  0.12866210  0.32947819  0.00231825  1
  H  H19  1  0.02793995  0.26116730  0.83802247  1
  H  H20  1  0.56465631  0.74834335  0.72958449  1
  H  H21  1  0.67487246  0.66948277  0.56073234  1
  H  H22  1  0.67477025  0.83307198  0.55126436  1
  H  H23  1  0.37193222  0.82955457  0.50291919  1
  H  H24  1  0.36950160  0.67629214  0.50614488  1
  H  H25  1  0.47178533  0.76130576  0.33798493  1
  H  H26  1  0.06322585  0.75167694  0.76991115  1
  H  H27  1  0.17447015  0.83048290  0.93815459  1
  H  H28  1  0.17391135  0.66687748  0.94756865  1
  H  H29  1  0.86928184  0.82378788  0.99423390  1
  H  H30  1  0.87134521  0.67052003  0.99769212  1
  H  H31  1  0.97206470  0.73883194  0.16198915  1
  Ga  Ga32  1  0.50000198  0.00000197  0.00000750  1
  Ga  Ga33  1  0.99999907  0.50000177  0.50000503  1
  Tl  Tl34  1  -0.00000007  0.00000200  0.50000725  1
  Tl  Tl35  1  0.50000037  0.50000246  0.00000426  1
  Cl  Cl36  1  0.47945135  0.21919533  0.94160129  1
  Cl  Cl37  1  0.22761699  0.00160802  0.15030288  1
  Cl  Cl38  1  0.64168751  0.01626292  0.28268943  1
  Cl  Cl39  1  0.97896999  0.28078611  0.55864542  1
  Cl  Cl40  1  0.35831490  0.98374263  0.71732626  1
  Cl  Cl41  1  0.77238719  0.99839416  0.84971309  1
  Cl  Cl42  1  0.52055354  0.78080876  0.05841389  1
  Cl  Cl43  1  0.72778821  0.49830495  0.34946429  1
  Cl  Cl44  1  0.14192242  0.48376142  0.21747018  1
  Cl  Cl45  1  0.02102723  0.71921744  0.44136671  1
  Cl  Cl46  1  0.27220982  0.50169900  0.65054630  1
  Cl  Cl47  1  0.85807570  0.51624196  0.78254062  1
