# generated using pymatgen
data_TlH12C2(I2N)3
_symmetry_space_group_name_H-M   'P 1'
_cell_length_a   8.75205222
_cell_length_b   11.14122657
_cell_length_c   8.69598027
_cell_angle_alpha   95.66756806
_cell_angle_beta   90.00716906
_cell_angle_gamma   90.00061345
_symmetry_Int_Tables_number   1
_chemical_formula_structural   TlH12C2(I2N)3
_chemical_formula_sum   'Tl2 H24 C4 I12 N6'
_cell_volume   843.78781667
_cell_formula_units_Z   2
loop_
 _symmetry_equiv_pos_site_id
 _symmetry_equiv_pos_as_xyz
  1  'x, y, z'
loop_
 _atom_site_type_symbol
 _atom_site_label
 _atom_site_symmetry_multiplicity
 _atom_site_fract_x
 _atom_site_fract_y
 _atom_site_fract_z
 _atom_site_occupancy
  C  C0  1  0.50977736  0.28545391  0.40166410  1
  C  C1  1  0.90657909  0.22773663  0.07244427  1
  C  C2  1  0.59346340  0.72770483  0.57240957  1
  C  C3  1  0.99028173  0.78544413  0.90151963  1
  N  N4  1  0.54588588  0.28346431  0.56858883  1
  N  N5  1  0.01989921  0.22830620  0.94517828  1
  N  N6  1  0.48008547  0.72826415  0.44516562  1
  N  N7  1  0.95400569  0.78344842  0.06839783  1
  H  H8  1  0.61367738  0.26551818  0.33401764  1
  H  H9  1  0.42352854  0.21617865  0.36894357  1
  H  H10  1  0.46602503  0.37489255  0.38249401  1
  H  H11  1  0.58662666  0.19997396  0.59450365  1
  H  H12  1  0.62769440  0.34758105  0.60954406  1
  H  H13  1  0.44992157  0.30448757  0.63607851  1
  H  H14  1  0.96113208  0.26622228  0.17944886  1
  H  H15  1  0.87228059  0.13469309  0.08439303  1
  H  H16  1  0.80776639  0.28198901  0.04489327  1
  H  H17  1  0.11528579  0.17740368  0.97044032  1
  H  H18  1  0.05496621  0.31564908  0.93244986  1
  H  H19  1  0.97525503  0.19253060  0.83963314  1
  H  H20  1  0.53894664  0.76616117  0.67943285  1
  H  H21  1  0.62780537  0.63466610  0.58432904  1
  H  H22  1  0.69224197  0.78198639  0.54485462  1
  H  H23  1  0.44495235  0.81560094  0.43248992  1
  H  H24  1  0.38473914  0.67731908  0.47041975  1
  H  H25  1  0.52470000  0.69253859  0.33959731  1
  H  H26  1  0.88643753  0.76554440  0.83374284  1
  H  H27  1  0.03410608  0.87487393  0.88241739  1
  H  H28  1  0.07652003  0.71614682  0.86889848  1
  H  H29  1  0.87221277  0.84759096  0.10927527  1
  H  H30  1  0.91318099  0.69996671  0.09424278  1
  H  H31  1  0.04991783  0.80442062  0.13601083  1
  N  N32  1  0.09633858  0.97416616  0.62443027  1
  N  N33  1  0.40372186  0.47420484  0.12453090  1
  Tl  Tl34  1  0.50465025  0.91565597  0.01013674  1
  Tl  Tl35  1  0.99528097  0.41564126  0.51016224  1
  I  I36  1  0.45557921  0.30997045  0.99047031  1
  I  I37  1  0.21961527  0.02338012  0.15849191  1
  I  I38  1  0.69698819  0.98147602  0.29387157  1
  I  I39  1  0.03120377  0.15480999  0.52508875  1
  I  I40  1  0.33728856  0.99617029  0.65966017  1
  I  I41  1  0.69878838  0.04247157  0.77398258  1
  I  I42  1  0.46881818  0.65481968  0.02509519  1
  I  I43  1  0.80126619  0.54251092  0.27397769  1
  I  I44  1  0.16277114  0.49621364  0.15972517  1
  I  I45  1  0.04443774  0.80994993  0.49033599  1
  I  I46  1  0.28035044  0.52338954  0.65850513  1
  I  I47  1  0.80302679  0.48148988  0.79391283  1
