# generated using pymatgen
data_GaHgH12C2(NCl3)2
_symmetry_space_group_name_H-M   'P 1'
_cell_length_a   7.54776337
_cell_length_b   10.71451435
_cell_length_c   8.45165602
_cell_angle_alpha   85.01470234
_cell_angle_beta   89.30094345
_cell_angle_gamma   91.47665062
_symmetry_Int_Tables_number   1
_chemical_formula_structural   GaHgH12C2(NCl3)2
_chemical_formula_sum   'Ga2 Hg2 H24 C4 N4 Cl12'
_cell_volume   680.60735045
_cell_formula_units_Z   2
loop_
 _symmetry_equiv_pos_site_id
 _symmetry_equiv_pos_as_xyz
  1  'x, y, z'
loop_
 _atom_site_type_symbol
 _atom_site_label
 _atom_site_symmetry_multiplicity
 _atom_site_fract_x
 _atom_site_fract_y
 _atom_site_fract_z
 _atom_site_occupancy
  C  C0  1  0.47473563  0.22136482  0.45259551  1
  C  C1  1  0.00529967  0.24438460  0.08981101  1
  C  C2  1  0.49893475  0.77545311  0.54561075  1
  C  C3  1  0.00797565  0.76677547  0.90746620  1
  N  N4  1  0.56394331  0.25528031  0.59959626  1
  N  N5  1  0.06365872  0.22265061  0.92580513  1
  N  N6  1  0.43777934  0.74242270  0.38767528  1
  N  N7  1  0.94417192  0.76579525  0.07457826  1
  H  H8  1  0.57494982  0.20981280  0.36057128  1
  H  H9  1  0.39935206  0.13326866  0.47942685  1
  H  H10  1  0.38340890  0.29546206  0.41398595  1
  H  H11  1  0.62576536  0.17820940  0.65896857  1
  H  H12  1  0.66135822  0.32419029  0.57499476  1
  H  H13  1  0.47632595  0.28675183  0.68143964  1
  H  H14  1  0.12258860  0.25180447  0.16330433  1
  H  H15  1  0.92053647  0.16469984  0.13590834  1
  H  H16  1  0.93187365  0.33129750  0.08552327  1
  H  H17  1  0.15019394  0.14851241  0.92331541  1
  H  H18  1  0.13029515  0.30052221  0.87025285  1
  H  H19  1  0.95566797  0.19911531  0.85844497  1
  H  H20  1  0.38807870  0.81235619  0.61008042  1
  H  H21  1  0.54717508  0.69139116  0.61248731  1
  H  H22  1  0.60601885  0.84644858  0.52821150  1
  H  H23  1  0.40459635  0.82145642  0.31408734  1
  H  H24  1  0.32517212  0.68483268  0.39662076  1
  H  H25  1  0.53433456  0.69384599  0.33026100  1
  H  H26  1  0.89371311  0.77250700  0.82928389  1
  H  H27  1  0.09755848  0.84790860  0.88069918  1
  H  H28  1  0.07921727  0.68031220  0.89588451  1
  H  H29  1  0.87660233  0.84645233  0.09651139  1
  H  H30  1  0.85838674  0.69009934  0.10731030  1
  H  H31  1  0.04980110  0.75886556  0.15094582  1
  Ga  Ga32  1  0.50954520  0.95903129  0.97992418  1
  Ga  Ga33  1  0.01081065  0.50235625  0.61527477  1
  Hg  Hg34  1  0.01084866  0.01517686  0.48101115  1
  Hg  Hg35  1  0.46321858  0.45629135  0.11584471  1
  Cl  Cl36  1  0.50037788  0.26321425  0.99673733  1
  Cl  Cl37  1  0.26660446  0.96129206  0.15609491  1
  Cl  Cl38  1  0.69213690  0.97506091  0.19754263  1
  Cl  Cl39  1  0.97600043  0.33370056  0.48522027  1
  Cl  Cl40  1  0.32209149  0.02948585  0.77716840  1
  Cl  Cl41  1  0.75133094  0.03966200  0.81362887  1
  Cl  Cl42  1  0.52728141  0.75429360  0.94406619  1
  Cl  Cl43  1  0.70627308  0.54474578  0.27232655  1
  Cl  Cl44  1  0.18918985  0.54637823  0.19579389  1
  Cl  Cl45  1  0.00655943  0.69437467  0.50123782  1
  Cl  Cl46  1  0.27776503  0.47847623  0.72561942  1
  Cl  Cl47  1  0.80051999  0.48228872  0.80114749  1
