# generated using pymatgen
data_GaH12AuC2(NCl3)2
_symmetry_space_group_name_H-M   'P 1'
_cell_length_a   7.24268556
_cell_length_b   11.14379234
_cell_length_c   7.74519297
_cell_angle_alpha   85.31038020
_cell_angle_beta   90.00433638
_cell_angle_gamma   89.99869335
_symmetry_Int_Tables_number   1
_chemical_formula_structural   GaH12AuC2(NCl3)2
_chemical_formula_sum   'Ga2 H24 Au2 C4 N4 Cl12'
_cell_volume   623.02936867
_cell_formula_units_Z   2
loop_
 _symmetry_equiv_pos_site_id
 _symmetry_equiv_pos_as_xyz
  1  'x, y, z'
loop_
 _atom_site_type_symbol
 _atom_site_label
 _atom_site_symmetry_multiplicity
 _atom_site_fract_x
 _atom_site_fract_y
 _atom_site_fract_z
 _atom_site_occupancy
  C  C0  1  0.42127446  0.25465671  0.39015474  1
  C  C1  1  0.96541001  0.25280708  0.11270068  1
  C  C2  1  0.53452832  0.75285919  0.61274172  1
  C  C3  1  0.07892292  0.75466629  0.89015859  1
  N  N4  1  0.52415456  0.24051178  0.55598522  1
  N  N5  1  0.07817860  0.25569693  0.95291463  1
  N  N6  1  0.42177071  0.75574389  0.45293476  1
  N  N7  1  0.97579321  0.74051359  0.05583747  1
  H  H8  1  0.52125613  0.26455265  0.28452117  1
  H  H9  1  0.33632527  0.17449402  0.37996802  1
  H  H10  1  0.33696070  0.33582181  0.38988212  1
  H  H11  1  0.60564031  0.16424966  0.56385123  1
  H  H12  1  0.61326475  0.31238669  0.56485119  1
  H  H13  1  0.44104613  0.23435245  0.66481251  1
  H  H14  1  0.05831408  0.25065528  0.22398731  1
  H  H15  1  0.87964062  0.17209972  0.11995513  1
  H  H16  1  0.87886165  0.33337024  0.10887746  1
  H  H17  1  0.16329390  0.18063082  0.95737075  1
  H  H18  1  0.16196467  0.33158961  0.94543356  1
  H  H19  1  0.00053840  0.25756055  0.83940381  1
  H  H20  1  0.44161151  0.75083097  0.72399925  1
  H  H21  1  0.62016484  0.67208454  0.62010556  1
  H  H22  1  0.62120285  0.83335805  0.60886074  1
  H  H23  1  0.33808091  0.83168374  0.44533891  1
  H  H24  1  0.33656837  0.68072656  0.45743086  1
  H  H25  1  0.49943383  0.75751285  0.33945040  1
  H  H26  1  0.97910939  0.76462108  0.78437806  1
  H  H27  1  0.16328972  0.83578766  0.89005141  1
  H  H28  1  0.16384279  0.67446724  0.88006334  1
  H  H29  1  0.88674649  0.81245916  0.06459749  1
  H  H30  1  0.89419799  0.66431997  0.06351961  1
  H  H31  1  0.05870857  0.73428786  0.16480022  1
  Ga  Ga32  1  0.54855261  0.99860174  0.04318776  1
  Ga  Ga33  1  0.95140355  0.49865747  0.54309241  1
  Au  Au34  1  0.96367991  0.99898391  0.45451573  1
  Au  Au35  1  0.53639486  0.49893254  0.95438691  1
  Cl  Cl36  1  0.51664959  0.20471319  0.96262512  1
  Cl  Cl37  1  0.24312307  0.99391660  0.12144299  1
  Cl  Cl38  1  0.66856196  0.00935727  0.33306930  1
  Cl  Cl39  1  0.95689023  0.28719650  0.55943408  1
  Cl  Cl40  1  0.23736358  0.99395794  0.60646349  1
  Cl  Cl41  1  0.79747625  0.99760899  0.86533106  1
  Cl  Cl42  1  0.54304908  0.78714884  0.05948005  1
  Cl  Cl43  1  0.70243952  0.49767384  0.36528569  1
  Cl  Cl44  1  0.26269508  0.49382615  0.10626531  1
  Cl  Cl45  1  0.98327485  0.70478128  0.46253423  1
  Cl  Cl46  1  0.25686265  0.49395470  0.62124092  1
  Cl  Cl47  1  0.83151026  0.50940869  0.83300362  1
