# generated using pymatgen
data_GaH12IrC2(NCl3)2
_symmetry_space_group_name_H-M   'P 1'
_cell_length_a   7.16919210
_cell_length_b   10.36777832
_cell_length_c   7.87430244
_cell_angle_alpha   95.55266037
_cell_angle_beta   89.99860121
_cell_angle_gamma   89.99994176
_symmetry_Int_Tables_number   1
_chemical_formula_structural   GaH12IrC2(NCl3)2
_chemical_formula_sum   'Ga2 H24 Ir2 C4 N4 Cl12'
_cell_volume   582.53948818
_cell_formula_units_Z   2
loop_
 _symmetry_equiv_pos_site_id
 _symmetry_equiv_pos_as_xyz
  1  'x, y, z'
loop_
 _atom_site_type_symbol
 _atom_site_label
 _atom_site_symmetry_multiplicity
 _atom_site_fract_x
 _atom_site_fract_y
 _atom_site_fract_z
 _atom_site_occupancy
  C  C0  1  0.48940464  0.26134751  0.41731392  1
  C  C1  1  0.99020738  0.23833281  0.08316452  1
  C  C2  1  0.50978742  0.73836867  0.58311697  1
  C  C3  1  0.01059356  0.76136103  0.91738410  1
  N  N4  1  0.54459260  0.24407101  0.59454141  1
  N  N5  1  0.04311048  0.25640497  0.90558310  1
  N  N6  1  0.45687084  0.75636423  0.40551887  1
  N  N7  1  0.95541944  0.74407712  0.09461499  1
  H  H8  1  0.61475916  0.26084473  0.33874988  1
  H  H9  1  0.39722990  0.18151606  0.37131839  1
  H  H10  1  0.41688548  0.35397923  0.41547924  1
  H  H11  1  0.62275349  0.16056292  0.60361012  1
  H  H12  1  0.62319884  0.32175477  0.64932749  1
  H  H13  1  0.43009445  0.23705488  0.67239181  1
  H  H14  1  0.11682700  0.23539994  0.15950481  1
  H  H15  1  0.91378924  0.14717681  0.08459190  1
  H  H16  1  0.90209282  0.31964540  0.13198653  1
  H  H17  1  0.11795208  0.17778486  0.84824483  1
  H  H18  1  0.12416046  0.33862269  0.89676138  1
  H  H19  1  0.92748460  0.26680289  0.83018036  1
  H  H20  1  0.38317422  0.73549249  0.65948334  1
  H  H21  1  0.58617894  0.64720751  0.58460884  1
  H  H22  1  0.59793195  0.81968667  0.63185969  1
  H  H23  1  0.37584626  0.83858823  0.39663655  1
  H  H24  1  0.38200171  0.67773406  0.34824819  1
  H  H25  1  0.57249086  0.76670081  0.33008341  1
  H  H26  1  0.88522999  0.76088653  0.83884050  1
  H  H27  1  0.08313994  0.85398359  0.91555527  1
  H  H28  1  0.10273997  0.68151984  0.87136107  1
  H  H29  1  0.87684474  0.82177025  0.14942606  1
  H  H30  1  0.87723541  0.66057725  0.10368603  1
  H  H31  1  0.06992598  0.73703411  0.17244187  1
  Ga  Ga32  1  0.49766597  0.99914246  0.99798815  1
  Ga  Ga33  1  0.00236462  0.49916914  0.49808896  1
  Ir  Ir34  1  0.99946724  0.99987273  0.49987274  1
  Ir  Ir35  1  0.50053728  0.49987631  0.99982316  1
  Cl  Cl36  1  0.49533220  0.27053133  0.00033531  1
  Cl  Cl37  1  0.20556888  0.97981108  0.26190347  1
  Cl  Cl38  1  0.74158368  0.98174373  0.30985572  1
  Cl  Cl39  1  0.99425056  0.22935030  0.49942922  1
  Cl  Cl40  1  0.25762693  0.01852874  0.68980022  1
  Cl  Cl41  1  0.79387276  0.01972700  0.73822542  1
  Cl  Cl42  1  0.50576222  0.72935554  0.99939834  1
  Cl  Cl43  1  0.70612452  0.51970856  0.23816709  1
  Cl  Cl44  1  0.24236712  0.51850355  0.18974648  1
  Cl  Cl45  1  0.00467349  0.77052513  0.50040056  1
  Cl  Cl46  1  0.29444755  0.47982628  0.76184880  1
  Cl  Cl47  1  0.75842485  0.48175253  0.80979752  1
