# generated using pymatgen
data_BaGaH12C2(NCl3)2
_symmetry_space_group_name_H-M   'P 1'
_cell_length_a   8.12665153
_cell_length_b   11.36362836
_cell_length_c   7.49598645
_cell_angle_alpha   87.76960548
_cell_angle_beta   89.33913948
_cell_angle_gamma   92.36765314
_symmetry_Int_Tables_number   1
_chemical_formula_structural   BaGaH12C2(NCl3)2
_chemical_formula_sum   'Ba2 Ga2 H24 C4 N4 Cl12'
_cell_volume   691.06639482
_cell_formula_units_Z   2
loop_
 _symmetry_equiv_pos_site_id
 _symmetry_equiv_pos_as_xyz
  1  'x, y, z'
loop_
 _atom_site_type_symbol
 _atom_site_label
 _atom_site_symmetry_multiplicity
 _atom_site_fract_x
 _atom_site_fract_y
 _atom_site_fract_z
 _atom_site_occupancy
  C  C0  1  0.41740141  0.25173076  0.41906826  1
  C  C1  1  0.90719330  0.24809640  0.07447200  1
  C  C2  1  0.57949741  0.74825662  0.58284582  1
  C  C3  1  0.09596807  0.75163510  0.92746713  1
  N  N4  1  0.57148958  0.23960843  0.52058298  1
  N  N5  1  0.06579865  0.24623569  0.97517620  1
  N  N6  1  0.42741578  0.76079842  0.47800130  1
  N  N7  1  0.93541127  0.75356371  0.02294429  1
  H  H8  1  0.44665442  0.25294873  0.27581273  1
  H  H9  1  0.33840444  0.17343247  0.45169324  1
  H  H10  1  0.35656086  0.33141882  0.45632107  1
  H  H11  1  0.62462156  0.16076444  0.48420923  1
  H  H12  1  0.65455903  0.30926180  0.49016096  1
  H  H13  1  0.54704718  0.23677526  0.65829876  1
  H  H14  1  0.93366684  0.25186679  0.21698809  1
  H  H15  1  0.83415960  0.16800374  0.04749460  1
  H  H16  1  0.84357158  0.32690560  0.03144180  1
  H  H17  1  0.12451910  0.16742309  0.00847685  1
  H  H18  1  0.14323998  0.31536653  0.01028913  1
  H  H19  1  0.04941706  0.25392760  0.83789859  1
  H  H20  1  0.54763814  0.74717201  0.72546110  1
  H  H21  1  0.64065330  0.66835875  0.54702430  1
  H  H22  1  0.65945819  0.82631814  0.55195562  1
  H  H23  1  0.37412653  0.83983854  0.51321956  1
  H  H24  1  0.34352049  0.69144948  0.50695111  1
  H  H25  1  0.45418502  0.76348720  0.34074472  1
  H  H26  1  0.07255033  0.74834582  0.78424438  1
  H  H27  1  0.16862248  0.83149476  0.95656948  1
  H  H28  1  0.15830941  0.67256525  0.97185459  1
  H  H29  1  0.87752880  0.83261735  0.98887756  1
  H  H30  1  0.85859901  0.68466903  0.98544278  1
  H  H31  1  0.94902376  0.74538003  0.16055564  1
  Ga  Ga32  1  0.50042365  0.99989168  0.99888124  1
  Ga  Ga33  1  0.99966512  0.49996059  0.49992480  1
  Ba  Ba34  1  0.99906639  0.99938648  0.49875211  1
  Ba  Ba35  1  0.50002770  0.50012811  0.99964227  1
  Cl  Cl36  1  0.46410184  0.25364100  0.92040253  1
  Cl  Cl37  1  0.17716189  0.01503704  0.15704791  1
  Cl  Cl38  1  0.67438883  0.01877809  0.33399002  1
  Cl  Cl39  1  0.98956712  0.29008741  0.55485901  1
  Cl  Cl40  1  0.32309119  0.98091648  0.66550724  1
  Cl  Cl41  1  0.82513555  0.98574071  0.84303759  1
  Cl  Cl42  1  0.53865961  0.74631648  0.08006078  1
  Cl  Cl43  1  0.74727083  0.48300811  0.33248194  1
  Cl  Cl44  1  0.16328159  0.48146717  0.22785147  1
  Cl  Cl45  1  0.00892420  0.71003070  0.44516962  1
  Cl  Cl46  1  0.25193500  0.51708480  0.66765510  1
  Cl  Cl47  1  0.83651063  0.51888704  0.77248909  1
