# generated using pymatgen
data_GaSbH12C2(NCl3)2
_symmetry_space_group_name_H-M   'P 1'
_cell_length_a   7.84653793
_cell_length_b   11.05054057
_cell_length_c   7.53564424
_cell_angle_alpha   92.23634223
_cell_angle_beta   90.00326449
_cell_angle_gamma   89.98266083
_symmetry_Int_Tables_number   1
_chemical_formula_structural   GaSbH12C2(NCl3)2
_chemical_formula_sum   'Ga2 Sb2 H24 C4 N4 Cl12'
_cell_volume   652.90661602
_cell_formula_units_Z   2
loop_
 _symmetry_equiv_pos_site_id
 _symmetry_equiv_pos_as_xyz
  1  'x, y, z'
loop_
 _atom_site_type_symbol
 _atom_site_label
 _atom_site_symmetry_multiplicity
 _atom_site_fract_x
 _atom_site_fract_y
 _atom_site_fract_z
 _atom_site_occupancy
  C  C0  1  0.39467334  0.25048255  0.41253388  1
  C  C1  1  0.89569887  0.24970553  0.08840693  1
  C  C2  1  0.60532408  0.74952280  0.58747719  1
  C  C3  1  0.10430558  0.75029477  0.91160576  1
  N  N4  1  0.55002466  0.25169619  0.52425061  1
  N  N5  1  0.05045098  0.24831392  0.97582254  1
  N  N6  1  0.44997275  0.74830991  0.47576080  1
  N  N7  1  0.94955542  0.75168329  0.02419299  1
  H  H8  1  0.43284062  0.24830548  0.27295869  1
  H  H9  1  0.32090785  0.16987404  0.44019018  1
  H  H10  1  0.32104118  0.33235197  0.44391386  1
  H  H11  1  0.62267112  0.17484333  0.49476396  1
  H  H12  1  0.62302605  0.32706248  0.49784162  1
  H  H13  1  0.52077469  0.25407231  0.65950040  1
  H  H14  1  0.93464581  0.25190722  0.22775738  1
  H  H15  1  0.82181017  0.16790940  0.05757682  1
  H  H16  1  0.82186110  0.33040028  0.06115125  1
  H  H17  1  0.12351999  0.17286149  0.00189879  1
  H  H18  1  0.12327985  0.32508302  0.00487243  1
  H  H19  1  0.02052444  0.24590180  0.84072809  1
  H  H20  1  0.56715686  0.75170222  0.72705262  1
  H  H21  1  0.67895403  0.66765196  0.55609944  1
  H  H22  1  0.67909179  0.83012981  0.55981879  1
  H  H23  1  0.37732655  0.82516269  0.50524823  1
  H  H24  1  0.37697125  0.67294365  0.50216881  1
  H  H25  1  0.47922301  0.74593519  0.34051057  1
  H  H26  1  0.06535662  0.74809453  0.77225609  1
  H  H27  1  0.17819319  0.83209112  0.94243749  1
  H  H28  1  0.17814502  0.66960019  0.93885784  1
  H  H29  1  0.87648329  0.82713452  0.99811955  1
  H  H30  1  0.87672769  0.67491357  0.99514348  1
  H  H31  1  0.97948380  0.75409508  0.15928701  1
  Ga  Ga32  1  0.49999920  -0.00000033  0.00001410  1
  Ga  Ga33  1  0.99999923  0.50000379  0.49998984  1
  Sb  Sb34  1  0.00000122  0.00000200  0.50001029  1
  Sb  Sb35  1  0.49999886  0.50000477  0.00000132  1
  Cl  Cl36  1  0.47389782  0.26017460  0.94044696  1
  Cl  Cl37  1  0.17064457  0.01520717  0.19472369  1
  Cl  Cl38  1  0.70319098  0.00738194  0.32804510  1
  Cl  Cl39  1  0.97330495  0.23979587  0.56003261  1
  Cl  Cl40  1  0.29681091  0.99262498  0.67197469  1
  Cl  Cl41  1  0.82936674  0.98479230  0.80528830  1
  Cl  Cl42  1  0.52610924  0.73984565  0.05956678  1
  Cl  Cl43  1  0.67042679  0.48469045  0.30537621  1
  Cl  Cl44  1  0.20313323  0.49272530  0.17178772  1
  Cl  Cl45  1  0.02669501  0.76020285  0.43998351  1
  Cl  Cl46  1  0.32957228  0.51531423  0.69462597  1
  Cl  Cl47  1  0.79685107  0.50727641  0.82822542  1
