# generated using pymatgen
data_InGaH12C2(NCl3)2
_symmetry_space_group_name_H-M   'P 1'
_cell_length_a   7.83109330
_cell_length_b   11.05232757
_cell_length_c   7.49334292
_cell_angle_alpha   93.48216612
_cell_angle_beta   89.99391505
_cell_angle_gamma   89.98461865
_symmetry_Int_Tables_number   1
_chemical_formula_structural   InGaH12C2(NCl3)2
_chemical_formula_sum   'In2 Ga2 H24 C4 N4 Cl12'
_cell_volume   647.36494564
_cell_formula_units_Z   2
loop_
 _symmetry_equiv_pos_site_id
 _symmetry_equiv_pos_as_xyz
  1  'x, y, z'
loop_
 _atom_site_type_symbol
 _atom_site_label
 _atom_site_symmetry_multiplicity
 _atom_site_fract_x
 _atom_site_fract_y
 _atom_site_fract_z
 _atom_site_occupancy
  C  C0  1  0.39847186  0.25070711  0.41266738  1
  C  C1  1  0.89928776  0.24947686  0.08802040  1
  C  C2  1  0.60152622  0.74929828  0.58734379  1
  C  C3  1  0.10071547  0.75052614  0.91199205  1
  N  N4  1  0.55534114  0.25353736  0.52326792  1
  N  N5  1  0.05568450  0.24646585  0.97665633  1
  N  N6  1  0.44465687  0.74646776  0.47674337  1
  N  N7  1  0.94432028  0.75353323  0.02335830  1
  H  H8  1  0.43527299  0.24815679  0.27175707  1
  H  H9  1  0.32498830  0.17032730  0.44069153  1
  H  H10  1  0.32493870  0.33288045  0.44616982  1
  H  H11  1  0.62857602  0.17644842  0.49323186  1
  H  H12  1  0.62736105  0.32872923  0.49588634  1
  H  H13  1  0.52732329  0.25822709  0.65987043  1
  H  H14  1  0.93670688  0.25205126  0.22874173  1
  H  H15  1  0.82555782  0.16733740  0.05499971  1
  H  H16  1  0.82572259  0.32990013  0.06031111  1
  H  H17  1  0.12776036  0.17123130  0.00370568  1
  H  H18  1  0.12907727  0.32351130  0.00636495  1
  H  H19  1  0.02712708  0.24180270  0.84018764  1
  H  H20  1  0.56472519  0.75185087  0.72825423  1
  H  H21  1  0.67505777  0.66712363  0.55384376  1
  H  H22  1  0.67501123  0.82967669  0.55931702  1
  H  H23  1  0.37142267  0.82355748  0.50677880  1
  H  H24  1  0.37263628  0.67127677  0.50412593  1
  H  H25  1  0.47267474  0.74177743  0.34014086  1
  H  H26  1  0.06329438  0.74795347  0.77127144  1
  H  H27  1  0.17444394  0.83266590  0.94501459  1
  H  H28  1  0.17428288  0.67010305  0.93969723  1
  H  H29  1  0.87224101  0.82876680  0.99631158  1
  H  H30  1  0.87092980  0.67648682  0.99364885  1
  H  H31  1  0.97287895  0.75819595  0.15982672  1
  Ga  Ga32  1  0.50000219  0.00000197  0.00000631  1
  Ga  Ga33  1  0.99999906  0.50000160  0.50000365  1
  In  In34  1  -0.00000006  0.00000183  0.50000757  1
  In  In35  1  0.50000074  0.50000204  0.00000449  1
  Cl  Cl36  1  0.47712056  0.26912006  0.93983273  1
  Cl  Cl37  1  0.15755570  0.01593417  0.20355870  1
  Cl  Cl38  1  0.71315551  0.00419572  0.33784808  1
  Cl  Cl39  1  0.97662690  0.23088030  0.56043321  1
  Cl  Cl40  1  0.28684466  0.99580913  0.66216667  1
  Cl  Cl41  1  0.84244603  0.98406689  0.79645707  1
  Cl  Cl42  1  0.52288242  0.73088383  0.06017889  1
  Cl  Cl43  1  0.65743525  0.48401589  0.29649498  1
  Cl  Cl44  1  0.21307519  0.49583121  0.16203073  1
  Cl  Cl45  1  0.02337197  0.76912284  0.43958235  1
  Cl  Cl46  1  0.34256624  0.51598802  0.70351466  1
  Cl  Cl47  1  0.78692607  0.50417195  0.83797811  1
