# generated using pymatgen
data_CdGaH12C2(NCl3)2
_symmetry_space_group_name_H-M   'P 1'
_cell_length_a   7.72638329
_cell_length_b   10.17070621
_cell_length_c   8.07094963
_cell_angle_alpha   90.89610962
_cell_angle_beta   89.44744443
_cell_angle_gamma   90.74596015
_symmetry_Int_Tables_number   1
_chemical_formula_structural   CdGaH12C2(NCl3)2
_chemical_formula_sum   'Cd2 Ga2 H24 C4 N4 Cl12'
_cell_volume   634.07803221
_cell_formula_units_Z   2
loop_
 _symmetry_equiv_pos_site_id
 _symmetry_equiv_pos_as_xyz
  1  'x, y, z'
loop_
 _atom_site_type_symbol
 _atom_site_label
 _atom_site_symmetry_multiplicity
 _atom_site_fract_x
 _atom_site_fract_y
 _atom_site_fract_z
 _atom_site_occupancy
  C  C0  1  0.46118428  0.23565693  0.41800328  1
  C  C1  1  0.98326215  0.23752177  0.06464023  1
  C  C2  1  0.51464788  0.75826094  0.57297613  1
  C  C3  1  0.02783267  0.76584775  0.94310991  1
  N  N4  1  0.56756866  0.26355851  0.56651961  1
  N  N5  1  0.06050611  0.24445629  0.89611864  1
  N  N6  1  0.44164051  0.75233931  0.40365276  1
  N  N7  1  0.94085414  0.74095595  0.10423298  1
  H  H8  1  0.54799354  0.22282131  0.31136189  1
  H  H9  1  0.38560143  0.14577491  0.43804280  1
  H  H10  1  0.37529424  0.31869968  0.39882137  1
  H  H11  1  0.64485511  0.18414448  0.59754595  1
  H  H12  1  0.64761221  0.34416460  0.54663751  1
  H  H13  1  0.49370140  0.28325533  0.67186105  1
  H  H14  1  0.08702061  0.22166652  0.15273567  1
  H  H15  1  0.89057750  0.15537853  0.06756060  1
  H  H16  1  0.91870844  0.33033949  0.09376152  1
  H  H17  1  0.11976028  0.15700639  0.85693837  1
  H  H18  1  0.15449188  0.31750243  0.88882732  1
  H  H19  1  0.96649679  0.26338720  0.81000091  1
  H  H20  1  0.40828091  0.76292758  0.66264224  1
  H  H21  1  0.59100403  0.67008075  0.59183112  1
  H  H22  1  0.59648660  0.84645965  0.58418241  1
  H  H23  1  0.36796294  0.83479567  0.37653989  1
  H  H24  1  0.36203045  0.67047939  0.38440250  1
  H  H25  1  0.53873950  0.74725452  0.31502735  1
  H  H26  1  0.92982358  0.78634676  0.85056073  1
  H  H27  1  0.11578880  0.85017566  0.95710495  1
  H  H28  1  0.10146281  0.67850762  0.90749296  1
  H  H29  1  0.89602844  0.82714630  0.16105066  1
  H  H30  1  0.83376294  0.67984994  0.09016652  1
  H  H31  1  0.02430384  0.69484795  0.18425248  1
  Ga  Ga32  1  0.50304694  0.99366877  0.00081779  1
  Ga  Ga33  1  0.01840824  0.50089250  0.59140782  1
  Cd  Cd34  1  0.99933377  0.00082512  0.50349730  1
  Cd  Cd35  1  0.48676313  0.49550869  0.08566762  1
  Cl  Cl36  1  0.48154447  0.27343304  0.96102781  1
  Cl  Cl37  1  0.20764005  0.97400674  0.25549599  1
  Cl  Cl38  1  0.74687052  0.97796521  0.29612581  1
  Cl  Cl39  1  0.99463855  0.30014126  0.47429526  1
  Cl  Cl40  1  0.25219911  0.01473489  0.70655667  1
  Cl  Cl41  1  0.78270938  0.03656986  0.74089532  1
  Cl  Cl42  1  0.54252525  0.72299000  0.98233340  1
  Cl  Cl43  1  0.70011639  0.50779006  0.31362314  1
  Cl  Cl44  1  0.19812736  0.52168281  0.21930431  1
  Cl  Cl45  1  0.99554699  0.70800656  0.50913310  1
  Cl  Cl46  1  0.28003050  0.49541270  0.70294098  1
  Cl  Cl47  1  0.81523842  0.48483997  0.78857198  1
