# generated using pymatgen
data_GaAgH12C2(NCl3)2
_symmetry_space_group_name_H-M   'P 1'
_cell_length_a   7.91728552
_cell_length_b   9.98961144
_cell_length_c   7.52456818
_cell_angle_alpha   87.54369315
_cell_angle_beta   90.03889184
_cell_angle_gamma   90.02174145
_symmetry_Int_Tables_number   1
_chemical_formula_structural   GaAgH12C2(NCl3)2
_chemical_formula_sum   'Ga2 Ag2 H24 C4 N4 Cl12'
_cell_volume   594.57568235
_cell_formula_units_Z   2
loop_
 _symmetry_equiv_pos_site_id
 _symmetry_equiv_pos_as_xyz
  1  'x, y, z'
loop_
 _atom_site_type_symbol
 _atom_site_label
 _atom_site_symmetry_multiplicity
 _atom_site_fract_x
 _atom_site_fract_y
 _atom_site_fract_z
 _atom_site_occupancy
  C  C0  1  0.42919936  0.24572493  0.42857949  1
  C  C1  1  0.92970317  0.25425437  0.07114202  1
  C  C2  1  0.57079417  0.75427834  0.57143087  1
  C  C3  1  0.07030454  0.74575062  0.92887891  1
  N  N4  1  0.58568040  0.24231285  0.53643663  1
  N  N5  1  0.08582446  0.25752388  0.96293604  1
  N  N6  1  0.41431612  0.75768866  0.46357116  1
  N  N7  1  0.91418040  0.74248101  0.03708173  1
  H  H8  1  0.46379601  0.24938235  0.28798287  1
  H  H9  1  0.35660179  0.15515245  0.46011158  1
  H  H10  1  0.35643531  0.33406242  0.46060172  1
  H  H11  1  0.65509760  0.15756552  0.51323561  1
  H  H12  1  0.66090172  0.32458988  0.50208357  1
  H  H13  1  0.56008891  0.24304995  0.67231867  1
  H  H14  1  0.96467157  0.25062876  0.21163397  1
  H  H15  1  0.85666407  0.16594676  0.03925518  1
  H  H16  1  0.85716501  0.34486421  0.03962405  1
  H  H17  1  0.16106109  0.17523695  0.99735929  1
  H  H18  1  0.15550575  0.34227871  0.98579452  1
  H  H19  1  0.05987506  0.25664000  0.82717292  1
  H  H20  1  0.53619825  0.75062811  0.71202591  1
  H  H21  1  0.64355941  0.66594016  0.53941411  1
  H  H22  1  0.64339347  0.84485085  0.53989205  1
  H  H23  1  0.34489772  0.84243584  0.48676663  1
  H  H24  1  0.33909159  0.67541081  0.49793065  1
  H  H25  1  0.43990648  0.75694399  0.32769217  1
  H  H26  1  0.03533851  0.74937134  0.78838635  1
  H  H27  1  0.14333825  0.83406165  0.96076243  1
  H  H28  1  0.14284572  0.65514406  0.96040384  1
  H  H29  1  0.83894370  0.82476583  0.00265480  1
  H  H30  1  0.84450257  0.65772424  0.01422256  1
  H  H31  1  0.94012729  0.74336604  0.17284531  1
  Ga  Ga32  1  0.50000126  0.99999563  0.00000346  1
  Ga  Ga33  1  0.99999727  0.50000194  0.50000642  1
  Ag  Ag34  1  0.99999139  0.00000295  0.50001202  1
  Ag  Ag35  1  0.50002006  0.50000756  0.99994155  1
  Cl  Cl36  1  0.49934936  0.25898259  0.95163862  1
  Cl  Cl37  1  0.25442495  0.00643898  0.17688491  1
  Cl  Cl38  1  0.67046126  0.00401783  0.25299227  1
  Cl  Cl39  1  0.99914006  0.24099681  0.54800713  1
  Cl  Cl40  1  0.32954172  0.99598141  0.74701530  1
  Cl  Cl41  1  0.74558064  0.99355971  0.82312469  1
  Cl  Cl42  1  0.50065429  0.74101483  0.04837279  1
  Cl  Cl43  1  0.75428630  0.49350828  0.32280056  1
  Cl  Cl44  1  0.17030329  0.49618892  0.24727524  1
  Cl  Cl45  1  0.00085559  0.75901006  0.45201520  1
  Cl  Cl46  1  0.24570979  0.50649542  0.67722588  1
  Cl  Cl47  1  0.82969703  0.50381984  0.75275298  1
