# generated using pymatgen
data_GaH12RhC2(NCl3)2
_symmetry_space_group_name_H-M   'P 1'
_cell_length_a   7.20511963
_cell_length_b   10.34268769
_cell_length_c   7.82652252
_cell_angle_alpha   94.30440060
_cell_angle_beta   89.99989082
_cell_angle_gamma   90.00028561
_symmetry_Int_Tables_number   1
_chemical_formula_structural   GaH12RhC2(NCl3)2
_chemical_formula_sum   'Ga2 H24 Rh2 C4 N4 Cl12'
_cell_volume   581.58973432
_cell_formula_units_Z   2
loop_
 _symmetry_equiv_pos_site_id
 _symmetry_equiv_pos_as_xyz
  1  'x, y, z'
loop_
 _atom_site_type_symbol
 _atom_site_label
 _atom_site_symmetry_multiplicity
 _atom_site_fract_x
 _atom_site_fract_y
 _atom_site_fract_z
 _atom_site_occupancy
  C  C0  1  0.48671208  0.25330100  0.41903832  1
  C  C1  1  0.98988545  0.24397641  0.08094882  1
  C  C2  1  0.51006353  0.74407722  0.58094243  1
  C  C3  1  0.01330085  0.75336073  0.91898553  1
  N  N4  1  0.54651010  0.24630990  0.59874433  1
  N  N5  1  0.04681829  0.25566362  0.90132510  1
  N  N6  1  0.45317072  0.75558378  0.40126997  1
  N  N7  1  0.95352632  0.74627346  0.09868331  1
  H  H8  1  0.60952374  0.24936261  0.33738893  1
  H  H9  1  0.39575425  0.17082359  0.38466611  1
  H  H10  1  0.41251036  0.34436696  0.40681779  1
  H  H11  1  0.62299356  0.16307414  0.61700951  1
  H  H12  1  0.62765102  0.32534416  0.64213168  1
  H  H13  1  0.43514209  0.24619914  0.68135964  1
  H  H14  1  0.11408030  0.23568436  0.15901570  1
  H  H15  1  0.90358893  0.15750835  0.08746852  1
  H  H16  1  0.91119602  0.33061288  0.12442818  1
  H  H17  1  0.11471426  0.17311524  0.84873351  1
  H  H18  1  0.13503255  0.33400041  0.88862729  1
  H  H19  1  0.93429032  0.26997446  0.82356199  1
  H  H20  1  0.38584897  0.73588968  0.65901174  1
  H  H21  1  0.59632359  0.65760255  0.58763110  1
  H  H22  1  0.58877870  0.83073093  0.62427798  1
  H  H23  1  0.36503577  0.83395103  0.38841270  1
  H  H24  1  0.38519921  0.67302980  0.34882241  1
  H  H25  1  0.56571996  0.76974124  0.32347289  1
  H  H26  1  0.89047599  0.74952161  0.83735697  1
  H  H27  1  0.08755865  0.84442530  0.90686645  1
  H  H28  1  0.10420289  0.67088134  0.88450041  1
  H  H29  1  0.87244396  0.82530412  0.14217442  1
  H  H30  1  0.87699084  0.66303682  0.11685414  1
  H  H31  1  0.06490774  0.74605470  0.18126924  1
  Ga  Ga32  1  0.49516640  0.00003685  0.00060004  1
  Ga  Ga33  1  0.00487026  0.50002439  0.50057104  1
  Rh  Rh34  1  0.99744904  0.00018333  0.50002413  1
  Rh  Rh35  1  0.50255958  0.50018452  0.00002907  1
  Cl  Cl36  1  0.49401761  0.27009072  0.00367736  1
  Cl  Cl37  1  0.20093517  0.98172094  0.25893162  1
  Cl  Cl38  1  0.74048688  0.98195651  0.30864325  1
  Cl  Cl39  1  0.98933781  0.23052800  0.49568270  1
  Cl  Cl40  1  0.25526200  0.01827005  0.69035786  1
  Cl  Cl41  1  0.79483127  0.01787113  0.74135179  1
  Cl  Cl42  1  0.51065227  0.73052249  0.99568641  1
  Cl  Cl43  1  0.70515098  0.51784509  0.24137268  1
  Cl  Cl44  1  0.24469982  0.51820911  0.19030994  1
  Cl  Cl45  1  0.00599116  0.77008391  0.50366068  1
  Cl  Cl46  1  0.29911330  0.48175733  0.75891185  1
  Cl  Cl47  1  0.75954916  0.48201238  0.80868906  1
