# generated using pymatgen
data_YGaH12C2(NCl3)2
_symmetry_space_group_name_H-M   'P 1'
_cell_length_a   7.90764992
_cell_length_b   11.21000048
_cell_length_c   7.56183572
_cell_angle_alpha   92.96265557
_cell_angle_beta   89.99987999
_cell_angle_gamma   89.97571255
_symmetry_Int_Tables_number   1
_chemical_formula_structural   YGaH12C2(NCl3)2
_chemical_formula_sum   'Y2 Ga2 H24 C4 N4 Cl12'
_cell_volume   669.42112542
_cell_formula_units_Z   2
loop_
 _symmetry_equiv_pos_site_id
 _symmetry_equiv_pos_as_xyz
  1  'x, y, z'
loop_
 _atom_site_type_symbol
 _atom_site_label
 _atom_site_symmetry_multiplicity
 _atom_site_fract_x
 _atom_site_fract_y
 _atom_site_fract_z
 _atom_site_occupancy
  C  C0  1  0.39489481  0.25044057  0.41198766  1
  C  C1  1  0.89588121  0.24980377  0.08896200  1
  C  C2  1  0.60510268  0.74956503  0.58802349  1
  C  C3  1  0.10412302  0.75019789  0.91105080  1
  N  N4  1  0.54944412  0.25202813  0.52291551  1
  N  N5  1  0.04985400  0.24798722  0.97715426  1
  N  N6  1  0.45055313  0.74797786  0.47709600  1
  N  N7  1  0.95015213  0.75201097  0.02286104  1
  H  H8  1  0.43231363  0.24819013  0.27266784  1
  H  H9  1  0.32185116  0.17091721  0.43882702  1
  H  H10  1  0.32189430  0.33134687  0.44457642  1
  H  H11  1  0.62154633  0.17591047  0.49306693  1
  H  H12  1  0.62134647  0.32642148  0.49678386  1
  H  H13  1  0.52065924  0.25527415  0.65791413  1
  H  H14  1  0.93409064  0.25206128  0.22806345  1
  H  H15  1  0.82264278  0.16896287  0.05694437  1
  H  H16  1  0.82276223  0.32940461  0.06254199  1
  H  H17  1  0.12180237  0.17352756  0.00292027  1
  H  H18  1  0.12213567  0.32403131  0.00656684  1
  H  H19  1  0.02039538  0.24474525  0.84229324  1
  H  H20  1  0.56768369  0.75181818  0.72734365  1
  H  H21  1  0.67810129  0.66865766  0.55543766  1
  H  H22  1  0.67814796  0.82908721  0.56118178  1
  H  H23  1  0.37845150  0.82409539  0.50694466  1
  H  H24  1  0.37865067  0.67358448  0.50322778  1
  H  H25  1  0.47933816  0.74473168  0.34209718  1
  H  H26  1  0.06591163  0.74794260  0.77195020  1
  H  H27  1  0.17736106  0.83103874  0.94307094  1
  H  H28  1  0.17724330  0.67059689  0.93746606  1
  H  H29  1  0.87820065  0.82646955  0.99709772  1
  H  H30  1  0.87787234  0.67596588  0.99344730  1
  H  H31  1  0.97961210  0.75525221  0.15772153  1
  Ga  Ga32  1  0.50000299  0.00000377  0.00000775  1
  Ga  Ga33  1  0.99999722  0.50000089  0.50000045  1
  Y  Y34  1  0.00000064  0.00000145  0.50000875  1
  Y  Y35  1  0.49999968  0.50000363  0.00000251  1
  Cl  Cl36  1  0.47316935  0.26606925  0.93583273  1
  Cl  Cl37  1  0.15706346  0.01926372  0.19436689  1
  Cl  Cl38  1  0.70343674  0.00773526  0.34086392  1
  Cl  Cl39  1  0.97263701  0.23392959  0.56456048  1
  Cl  Cl40  1  0.29656487  0.99227018  0.65915335  1
  Cl  Cl41  1  0.84294059  0.98073600  0.80565128  1
  Cl  Cl42  1  0.52683334  0.73393756  0.06417798  1
  Cl  Cl43  1  0.65695635  0.48065779  0.30570750  1
  Cl  Cl44  1  0.20339685  0.49238070  0.15906016  1
  Cl  Cl45  1  0.02736200  0.76607286  0.43545632  1
  Cl  Cl46  1  0.34304097  0.51934707  0.69429825  1
  Cl  Cl47  1  0.79660201  0.50762346  0.84094467  1
