# generated using pymatgen
data_H12IrC2(I2N)3
_symmetry_space_group_name_H-M   'P 1'
_cell_length_a   8.94322342
_cell_length_b   9.67810361
_cell_length_c   8.56274405
_cell_angle_alpha   85.09508513
_cell_angle_beta   90.03605292
_cell_angle_gamma   90.05437009
_symmetry_Int_Tables_number   1
_chemical_formula_structural   H12IrC2(I2N)3
_chemical_formula_sum   'H24 Ir2 C4 I12 N6'
_cell_volume   738.42047126
_cell_formula_units_Z   2
loop_
 _symmetry_equiv_pos_site_id
 _symmetry_equiv_pos_as_xyz
  1  'x, y, z'
loop_
 _atom_site_type_symbol
 _atom_site_label
 _atom_site_symmetry_multiplicity
 _atom_site_fract_x
 _atom_site_fract_y
 _atom_site_fract_z
 _atom_site_occupancy
  C  C0  1  0.47500952  0.27687807  0.41740072  1
  C  C1  1  0.94183625  0.20584459  0.04224167  1
  C  C2  1  0.55902530  0.70540357  0.54223834  1
  C  C3  1  0.02365361  0.77652673  0.91757017  1
  N  N4  1  0.56167875  0.26641359  0.56508459  1
  N  N5  1  0.07522958  0.24834357  0.94939834  1
  N  N6  1  0.42553128  0.74862032  0.44984886  1
  N  N7  1  0.93781851  0.76684333  0.06570062  1
  H  H8  1  0.54526522  0.24394564  0.32298894  1
  H  H9  1  0.37634160  0.20989761  0.43110966  1
  H  H10  1  0.44187202  0.38497837  0.39029828  1
  H  H11  1  0.60398373  0.16725418  0.59538547  1
  H  H12  1  0.65294878  0.33366401  0.55985206  1
  H  H13  1  0.49818344  0.29151785  0.66080637  1
  H  H14  1  0.93597579  0.26218325  0.14752220  1
  H  H15  1  0.94762673  0.09458437  0.07542646  1
  H  H16  1  0.84163267  0.22927245  0.97135068  1
  H  H17  1  0.17298875  0.23360851  0.01366741  1
  H  H18  1  0.07049951  0.35135025  0.90621041  1
  H  H19  1  0.08475465  0.18752873  0.84672253  1
  H  H20  1  0.56556544  0.76121039  0.64788310  1
  H  H21  1  0.55275630  0.59404699  0.57478271  1
  H  H22  1  0.65909112  0.72886693  0.47120805  1
  H  H23  1  0.43084895  0.85166753  0.40692231  1
  H  H24  1  0.32790736  0.73404487  0.51428128  1
  H  H25  1  0.41539432  0.68801918  0.34703327  1
  H  H26  1  0.95283618  0.74279074  0.82388563  1
  H  H27  1  0.05663849  0.88458152  0.88934183  1
  H  H28  1  0.12238379  0.70978848  0.93132591  1
  H  H29  1  0.84675736  0.83416990  0.06051754  1
  H  H30  1  0.89533584  0.66779478  0.09676780  1
  H  H31  1  0.00199614  0.79232231  0.16088474  1
  N  N32  1  0.09093785  0.08957999  0.70268826  1
  N  N33  1  0.40905541  0.58998441  0.20302900  1
  Ir  Ir34  1  0.47144191  0.99183498  0.98980499  1
  Ir  Ir35  1  0.02869522  0.49158508  0.48963253  1
  I  I36  1  0.49638333  0.27041622  0.97981391  1
  I  I37  1  0.24524873  0.99177002  0.19299298  1
  I  I38  1  0.66422653  0.97579914  0.23182091  1
  I  I39  1  0.03256714  0.20948537  0.50082965  1
  I  I40  1  0.31275337  0.00497858  0.71528787  1
  I  I41  1  0.70875475  0.97947324  0.78907996  1
  I  I42  1  0.46760076  0.70977366  0.00120364  1
  I  I43  1  0.79121084  0.47903080  0.28877561  1
  I  I44  1  0.18709786  0.50537824  0.21511976  1
  I  I45  1  0.00388315  0.77011234  0.48024969  1
  I  I46  1  0.25490326  0.49208320  0.69300787  1
  I  I47  1  0.83589667  0.47483040  0.73130204  1
