# generated using pymatgen
data_SrGaH12C2(NCl3)2
_symmetry_space_group_name_H-M   'P 1'
_cell_length_a   7.91286187
_cell_length_b   11.13124579
_cell_length_c   7.42885166
_cell_angle_alpha   88.99560458
_cell_angle_beta   90.66321201
_cell_angle_gamma   87.81367599
_symmetry_Int_Tables_number   1
_chemical_formula_structural   SrGaH12C2(NCl3)2
_chemical_formula_sum   'Sr2 Ga2 H24 C4 N4 Cl12'
_cell_volume   653.70745693
_cell_formula_units_Z   2
loop_
 _symmetry_equiv_pos_site_id
 _symmetry_equiv_pos_as_xyz
  1  'x, y, z'
loop_
 _atom_site_type_symbol
 _atom_site_label
 _atom_site_symmetry_multiplicity
 _atom_site_fract_x
 _atom_site_fract_y
 _atom_site_fract_z
 _atom_site_occupancy
  C  C0  1  0.39511533  0.24996481  0.43491600  1
  C  C1  1  0.92073161  0.24611839  0.08427274  1
  C  C2  1  0.60488579  0.75003771  0.56509619  1
  C  C3  1  0.07926905  0.75388509  0.91574070  1
  N  N4  1  0.56175780  0.26091664  0.52473720  1
  N  N5  1  0.07566343  0.26380512  0.97893655  1
  N  N6  1  0.43824209  0.73908926  0.47527611  1
  N  N7  1  0.92433773  0.73619621  0.02107701  1
  H  H8  1  0.41459877  0.24527431  0.28980613  1
  H  H9  1  0.33908566  0.16769637  0.48385568  1
  H  H10  1  0.31564356  0.32880843  0.46673524  1
  H  H11  1  0.64616362  0.19431945  0.48360655  1
  H  H12  1  0.61287174  0.34372234  0.48943472  1
  H  H13  1  0.55252138  0.25339678  0.66375254  1
  H  H14  1  0.95426874  0.24227891  0.22773842  1
  H  H15  1  0.86176487  0.16377694  0.04240832  1
  H  H16  1  0.83506981  0.32399594  0.05913922  1
  H  H17  1  0.16542411  0.19591444  0.00718098  1
  H  H18  1  0.12661396  0.34608658  0.01450470  1
  H  H19  1  0.04885115  0.26412991  0.84080191  1
  H  H20  1  0.58540317  0.75473024  0.71020599  1
  H  H21  1  0.68435355  0.67119195  0.53327821  1
  H  H22  1  0.66091940  0.83230414  0.51615462  1
  H  H23  1  0.35383889  0.80568753  0.51640915  1
  H  H24  1  0.38712599  0.65628411  0.51057759  1
  H  H25  1  0.44747747  0.74660990  0.33626093  1
  H  H26  1  0.04573062  0.75772618  0.77227494  1
  H  H27  1  0.13823531  0.83622593  0.95760675  1
  H  H28  1  0.16493119  0.67600722  0.94087131  1
  H  H29  1  0.83457561  0.80408658  0.99283392  1
  H  H30  1  0.87338855  0.65391467  0.98550854  1
  H  H31  1  0.95115067  0.73587132  0.15921221  1
  Ga  Ga32  1  0.50000081  0.00000144  0.00000564  1
  Ga  Ga33  1  0.00000067  0.50000158  0.50000381  1
  Sr  Sr34  1  0.99999980  0.00000190  0.50000434  1
  Sr  Sr35  1  0.50000105  0.50000240  1.00000398  1
  Cl  Cl36  1  0.49194526  0.21431508  0.95217697  1
  Cl  Cl37  1  0.24550332  0.01655333  0.17707437  1
  Cl  Cl38  1  0.67565082  0.01814571  0.27225657  1
  Cl  Cl39  1  0.96438476  0.23897674  0.57485139  1
  Cl  Cl40  1  0.32434980  0.98185738  0.72775623  1
  Cl  Cl41  1  0.75449829  0.98344926  0.82293857  1
  Cl  Cl42  1  0.50805621  0.78568766  0.04783553  1
  Cl  Cl43  1  0.67209525  0.49143205  0.32464462  1
  Cl  Cl44  1  0.18887726  0.49286194  0.16827532  1
  Cl  Cl45  1  0.03561638  0.76102640  0.42516207  1
  Cl  Cl46  1  0.32790627  0.50857165  0.67536237  1
  Cl  Cl47  1  0.81112717  0.50714037  0.83173376  1
