# generated using pymatgen
data_GaAsH12C2(NCl3)2
_symmetry_space_group_name_H-M   'P 1'
_cell_length_a   7.43461973
_cell_length_b   10.68249475
_cell_length_c   7.95751595
_cell_angle_alpha   93.36255602
_cell_angle_beta   90.09267494
_cell_angle_gamma   89.42878624
_symmetry_Int_Tables_number   1
_chemical_formula_structural   GaAsH12C2(NCl3)2
_chemical_formula_sum   'Ga2 As2 H24 C4 N4 Cl12'
_cell_volume   630.86845584
_cell_formula_units_Z   2
loop_
 _symmetry_equiv_pos_site_id
 _symmetry_equiv_pos_as_xyz
  1  'x, y, z'
loop_
 _atom_site_type_symbol
 _atom_site_label
 _atom_site_symmetry_multiplicity
 _atom_site_fract_x
 _atom_site_fract_y
 _atom_site_fract_z
 _atom_site_occupancy
  C  C0  1  0.48089139  0.24603529  0.42654614  1
  C  C1  1  0.98487163  0.23788958  0.07002028  1
  C  C2  1  0.51617670  0.75190756  0.57162910  1
  C  C3  1  0.01764051  0.75622154  0.93295104  1
  N  N4  1  0.55449046  0.25352482  0.60000488  1
  N  N5  1  0.05209392  0.26676131  0.90136274  1
  N  N6  1  0.44572457  0.74909626  0.39708731  1
  N  N7  1  0.94763614  0.74282835  0.10523394  1
  H  H8  1  0.59220957  0.23085455  0.33807781  1
  H  H9  1  0.38770004  0.16736783  0.41443499  1
  H  H10  1  0.41072978  0.33393503  0.40380183  1
  H  H11  1  0.62284483  0.17204149  0.62912164  1
  H  H12  1  0.64330084  0.32742382  0.62063879  1
  H  H13  1  0.45506164  0.26942054  0.68947033  1
  H  H14  1  0.09826810  0.20868788  0.14637729  1
  H  H15  1  0.88720471  0.16208400  0.05522817  1
  H  H16  1  0.92077502  0.32219647  0.12815178  1
  H  H17  1  0.10182495  0.18721698  0.83459766  1
  H  H18  1  0.15549018  0.33119733  0.90965274  1
  H  H19  1  0.95195666  0.30729875  0.83101406  1
  H  H20  1  0.40247314  0.75405577  0.65852684  1
  H  H21  1  0.59826130  0.66777846  0.58719402  1
  H  H22  1  0.59757869  0.83604033  0.59336553  1
  H  H23  1  0.36431004  0.82674707  0.37595810  1
  H  H24  1  0.37000216  0.66991845  0.36703140  1
  H  H25  1  0.54712367  0.74912566  0.30865799  1
  H  H26  1  0.90381129  0.76009915  0.84634452  1
  H  H27  1  0.09456742  0.84296760  0.93198022  1
  H  H28  1  0.10411856  0.67548163  0.89787140  1
  H  H29  1  0.86908719  0.81988039  0.14756270  1
  H  H30  1  0.86917903  0.66348636  0.11280938  1
  H  H31  1  0.04917960  0.73573126  0.19281147  1
  Ga  Ga32  1  0.49286163  0.99462819  0.02158394  1
  Ga  Ga33  1  0.01077016  0.50933019  0.51261676  1
  As  As34  1  0.99601758  0.00333393  0.50693072  1
  As  As35  1  0.50286637  0.49964265  0.00141830  1
  Cl  Cl36  1  0.48937098  0.26934405  0.00191859  1
  Cl  Cl37  1  0.21300395  0.97530331  0.24997396  1
  Cl  Cl38  1  0.72966566  0.97375945  0.28849135  1
  Cl  Cl39  1  0.98238691  0.22342805  0.48519547  1
  Cl  Cl40  1  0.24816327  0.02413923  0.69913410  1
  Cl  Cl41  1  0.78638918  0.01974767  0.74222520  1
  Cl  Cl42  1  0.51763242  0.73522045  0.99268510  1
  Cl  Cl43  1  0.70423141  0.51143427  0.24559842  1
  Cl  Cl44  1  0.23922423  0.51523540  0.18614936  1
  Cl  Cl45  1  0.01810458  0.75327708  0.51034076  1
  Cl  Cl46  1  0.29737438  0.48556443  0.73714818  1
  Cl  Cl47  1  0.77537729  0.48138842  0.79337029  1
