# generated using pymatgen
data_GaGeH12C2(NCl3)2
_symmetry_space_group_name_H-M   'P 1'
_cell_length_a   8.16668801
_cell_length_b   10.99887690
_cell_length_c   7.33846702
_cell_angle_alpha   88.62981877
_cell_angle_beta   90.09702738
_cell_angle_gamma   90.58741467
_symmetry_Int_Tables_number   1
_chemical_formula_structural   GaGeH12C2(NCl3)2
_chemical_formula_sum   'Ga2 Ge2 H24 C4 N4 Cl12'
_cell_volume   658.94956627
_cell_formula_units_Z   2
loop_
 _symmetry_equiv_pos_site_id
 _symmetry_equiv_pos_as_xyz
  1  'x, y, z'
loop_
 _atom_site_type_symbol
 _atom_site_label
 _atom_site_symmetry_multiplicity
 _atom_site_fract_x
 _atom_site_fract_y
 _atom_site_fract_z
 _atom_site_occupancy
  C  C0  1  0.42492956  0.25765568  0.45428110  1
  C  C1  1  0.94329038  0.25292035  0.05893811  1
  C  C2  1  0.55320642  0.74931657  0.53683588  1
  C  C3  1  0.06861346  0.74684693  0.94896503  1
  N  N4  1  0.59863099  0.26762484  0.51277621  1
  N  N5  1  0.10792773  0.27722032  0.97919639  1
  N  N6  1  0.38938924  0.72741660  0.45456953  1
  N  N7  1  0.90800708  0.73524963  0.04216474  1
  H  H8  1  0.42218738  0.25810764  0.30528825  1
  H  H9  1  0.37307218  0.17216309  0.50798324  1
  H  H10  1  0.35721499  0.33523530  0.50407884  1
  H  H11  1  0.66596066  0.19607041  0.45987208  1
  H  H12  1  0.65010552  0.34953771  0.46462478  1
  H  H13  1  0.61042631  0.26189815  0.65270888  1
  H  H14  1  0.95355116  0.25139637  0.20767830  1
  H  H15  1  0.89847345  0.16502609  0.01179926  1
  H  H16  1  0.86215425  0.32595800  0.01295932  1
  H  H17  1  0.18802527  0.21067182  0.02485412  1
  H  H18  1  0.15371506  0.36135952  0.01954714  1
  H  H19  1  0.10126631  0.27424658  0.83708881  1
  H  H20  1  0.54338612  0.73798165  0.68470685  1
  H  H21  1  0.63752650  0.68241779  0.48338940  1
  H  H22  1  0.59423956  0.84148200  0.49987543  1
  H  H23  1  0.29943522  0.78143432  0.50851690  1
  H  H24  1  0.35170984  0.63802306  0.47539192  1
  H  H25  1  0.39189138  0.74456392  0.31522930  1
  H  H26  1  0.04911261  0.74211460  0.80178010  1
  H  H27  1  0.12071041  0.83549684  0.98161973  1
  H  H28  1  0.14826780  0.67358058  0.99750954  1
  H  H29  1  0.83277954  0.80574742  0.99951143  1
  H  H30  1  0.84924279  0.65428812  0.01035036  1
  H  H31  1  0.92215016  0.73845676  0.18422756  1
  Ga  Ga32  1  0.41834633  0.99225101  0.97046710  1
  Ga  Ga33  1  0.99426903  0.50594647  0.49086556  1
  Ge  Ge34  1  0.96346267  0.00588408  0.52345285  1
  Ge  Ge35  1  0.51012796  0.45191286  0.99516461  1
  Cl  Cl36  1  0.53761630  0.17705436  0.95874427  1
  Cl  Cl37  1  0.22188086  0.02202380  0.17443447  1
  Cl  Cl38  1  0.72994359  0.03024349  0.33175752  1
  Cl  Cl39  1  0.99444676  0.23147905  0.57309892  1
  Cl  Cl40  1  0.31387550  0.97310308  0.69470601  1
  Cl  Cl41  1  0.81424802  0.97148385  0.79276633  1
  Cl  Cl42  1  0.51972022  0.81236025  0.05031355  1
  Cl  Cl43  1  0.70588846  0.50338263  0.27849259  1
  Cl  Cl44  1  0.24729044  0.50111610  0.21163894  1
  Cl  Cl45  1  0.99320905  0.74666459  0.45778651  1
  Cl  Cl46  1  0.32231739  0.50644963  0.74867762  1
  Cl  Cl47  1  0.74278182  0.51721436  0.80961121  1
