# generated using pymatgen
data_GeH12PbC2(NCl3)2
_symmetry_space_group_name_H-M   'P 1'
_cell_length_a   7.96237408
_cell_length_b   11.02470620
_cell_length_c   7.54733597
_cell_angle_alpha   89.18456002
_cell_angle_beta   89.93369883
_cell_angle_gamma   90.07018175
_symmetry_Int_Tables_number   1
_chemical_formula_structural   GeH12PbC2(NCl3)2
_chemical_formula_sum   'Ge2 H24 Pb2 C4 N4 Cl12'
_cell_volume   662.45849664
_cell_formula_units_Z   2
loop_
 _symmetry_equiv_pos_site_id
 _symmetry_equiv_pos_as_xyz
  1  'x, y, z'
loop_
 _atom_site_type_symbol
 _atom_site_label
 _atom_site_symmetry_multiplicity
 _atom_site_fract_x
 _atom_site_fract_y
 _atom_site_fract_z
 _atom_site_occupancy
  C  C0  1  0.41550857  0.25282156  0.42333153  1
  C  C1  1  0.91238825  0.24636905  0.07619774  1
  C  C2  1  0.58647961  0.75190731  0.57917599  1
  C  C3  1  0.08240562  0.74685218  0.92025669  1
  N  N4  1  0.56847224  0.24846582  0.53489762  1
  N  N5  1  0.06382736  0.25164482  0.96184816  1
  N  N6  1  0.43387611  0.75005386  0.46685679  1
  N  N7  1  0.92893420  0.74881867  0.03138936  1
  H  H8  1  0.45377491  0.25367142  0.28412645  1
  H  H9  1  0.34102627  0.17154677  0.45112683  1
  H  H10  1  0.34401375  0.33422810  0.45433424  1
  H  H11  1  0.63772401  0.17167196  0.50359787  1
  H  H12  1  0.64353480  0.32376966  0.51024738  1
  H  H13  1  0.53920254  0.24521305  0.66977395  1
  H  H14  1  0.95263735  0.24463095  0.21462504  1
  H  H15  1  0.84138012  0.16461597  0.04561081  1
  H  H16  1  0.83762879  0.32758461  0.05018092  1
  H  H17  1  0.13985092  0.17697877  0.98691207  1
  H  H18  1  0.13290044  0.32853413  0.98947800  1
  H  H19  1  0.03337348  0.25388571  0.82691295  1
  H  H20  1  0.54732553  0.75329438  0.71795695  1
  H  H21  1  0.66008147  0.67063227  0.55339107  1
  H  H22  1  0.65791633  0.83377083  0.54685479  1
  H  H23  1  0.36095308  0.82543130  0.49125894  1
  H  H24  1  0.36241636  0.67378177  0.49819662  1
  H  H25  1  0.46280206  0.74984051  0.33147458  1
  H  H26  1  0.04450269  0.74466634  0.78116187  1
  H  H27  1  0.15649976  0.82804113  0.94588334  1
  H  H28  1  0.15380629  0.66521303  0.95315461  1
  H  H29  1  0.85815032  0.82531647  0.00071851  1
  H  H30  1  0.85633751  0.67296961  0.00441159  1
  H  H31  1  0.95722501  0.74857943  0.16651914  1
  Ge  Ge32  1  0.48183712  0.00546836  0.99025650  1
  Ge  Ge33  1  0.99681022  0.50384282  0.48155934  1
  Pb  Pb34  1  0.99249576  0.00328240  0.50494180  1
  Pb  Pb35  1  0.50135903  0.50304344  0.99678738  1
  Cl  Cl36  1  0.47986599  0.23844747  0.94644684  1
  Cl  Cl37  1  0.22095607  0.01285554  0.16835050  1
  Cl  Cl38  1  0.69945885  0.01666653  0.32039287  1
  Cl  Cl39  1  0.98380560  0.25766415  0.55185867  1
  Cl  Cl40  1  0.32777599  0.98748993  0.70806203  1
  Cl  Cl41  1  0.81442884  0.98787983  0.81093834  1
  Cl  Cl42  1  0.51334838  0.75291366  0.05587080  1
  Cl  Cl43  1  0.72322849  0.49058008  0.32823098  1
  Cl  Cl44  1  0.16640306  0.48480172  0.20967703  1
  Cl  Cl45  1  0.01852418  0.74301949  0.44185948  1
  Cl  Cl46  1  0.31498569  0.51317285  0.69222388  1
  Cl  Cl47  1  0.79778471  0.51414857  0.82097776  1
