# generated using pymatgen
data_HgGeH12C2(NCl3)2
_symmetry_space_group_name_H-M   'P 1'
_cell_length_a   7.65122498
_cell_length_b   10.70706102
_cell_length_c   7.36694493
_cell_angle_alpha   89.34730326
_cell_angle_beta   89.98782997
_cell_angle_gamma   90.00156558
_symmetry_Int_Tables_number   1
_chemical_formula_structural   HgGeH12C2(NCl3)2
_chemical_formula_sum   'Hg2 Ge2 H24 C4 N4 Cl12'
_cell_volume   603.47666742
_cell_formula_units_Z   2
loop_
 _symmetry_equiv_pos_site_id
 _symmetry_equiv_pos_as_xyz
  1  'x, y, z'
loop_
 _atom_site_type_symbol
 _atom_site_label
 _atom_site_symmetry_multiplicity
 _atom_site_fract_x
 _atom_site_fract_y
 _atom_site_fract_z
 _atom_site_occupancy
  C  C0  1  0.40949620  0.24989452  0.41801928  1
  C  C1  1  0.91007515  0.25009067  0.08214135  1
  C  C2  1  0.59050010  0.75011562  0.58201553  1
  C  C3  1  0.08993195  0.74990936  0.91785730  1
  N  N4  1  0.57034455  0.24899323  0.52897349  1
  N  N5  1  0.07064791  0.25092372  0.97069195  1
  N  N6  1  0.42964734  0.75101118  0.47106933  1
  N  N7  1  0.92935281  0.74907739  0.02929619  1
  H  H8  1  0.44653535  0.25049331  0.27493030  1
  H  H9  1  0.33385785  0.16637287  0.45009945  1
  H  H10  1  0.33508372  0.33360850  0.44906245  1
  H  H11  1  0.64441006  0.17082394  0.49974940  1
  H  H12  1  0.64503288  0.32713930  0.49849729  1
  H  H13  1  0.54285410  0.24841609  0.66774265  1
  H  H14  1  0.94748466  0.24950589  0.22510665  1
  H  H15  1  0.83550202  0.16640852  0.05137196  1
  H  H16  1  0.83443339  0.33365160  0.05027631  1
  H  H17  1  0.14534287  0.17274664  0.00099252  1
  H  H18  1  0.14484067  0.32905556  0.99964225  1
  H  H19  1  0.04282542  0.25146928  0.83200184  1
  H  H20  1  0.55346560  0.74953580  0.72510553  1
  H  H21  1  0.66490193  0.66639274  0.55099465  1
  H  H22  1  0.66614676  0.83362930  0.54991232  1
  H  H23  1  0.35558721  0.82918488  0.50029026  1
  H  H24  1  0.35496597  0.67286509  0.50156671  1
  H  H25  1  0.45713171  0.75157782  0.33229838  1
  H  H26  1  0.05252677  0.75049013  0.77489117  1
  H  H27  1  0.16450417  0.83359219  0.94862540  1
  H  H28  1  0.16557167  0.66634802  0.94972470  1
  H  H29  1  0.85466009  0.82725458  0.99898832  1
  H  H30  1  0.85516497  0.67094296  0.00033467  1
  H  H31  1  0.95716595  0.74853421  0.16798585  1
  Ge  Ge32  1  0.50003043  0.99999938  0.00004763  1
  Ge  Ge33  1  0.99998249  0.50004662  0.49985002  1
  Hg  Hg34  1  0.00002636  0.00004822  0.50001596  1
  Hg  Hg35  1  0.50002456  0.50001768  0.99989192  1
  Cl  Cl36  1  0.48752100  0.24542876  0.94902170  1
  Cl  Cl37  1  0.20819973  0.00595811  0.19630105  1
  Cl  Cl38  1  0.70093599  0.00735063  0.29944467  1
  Cl  Cl39  1  0.98706656  0.25454647  0.55103733  1
  Cl  Cl40  1  0.29903765  0.99263434  0.70054207  1
  Cl  Cl41  1  0.79175558  0.99402134  0.80373233  1
  Cl  Cl42  1  0.51247724  0.75454843  0.05104546  1
  Cl  Cl43  1  0.70830771  0.49400305  0.30377232  1
  Cl  Cl44  1  0.20092384  0.49261438  0.20046124  1
  Cl  Cl45  1  0.01290181  0.74541059  0.44896499  1
  Cl  Cl46  1  0.29177391  0.50600204  0.69628720  1
  Cl  Cl47  1  0.79906706  0.50739333  0.79962524  1
