# generated using pymatgen
data_GeH12AuC2(NCl3)2
_symmetry_space_group_name_H-M   'P 1'
_cell_length_a   7.87141398
_cell_length_b   10.22544219
_cell_length_c   7.91569742
_cell_angle_alpha   87.74775958
_cell_angle_beta   89.82291575
_cell_angle_gamma   89.89954889
_symmetry_Int_Tables_number   1
_chemical_formula_structural   GeH12AuC2(NCl3)2
_chemical_formula_sum   'Ge2 H24 Au2 C4 N4 Cl12'
_cell_volume   636.62803721
_cell_formula_units_Z   2
loop_
 _symmetry_equiv_pos_site_id
 _symmetry_equiv_pos_as_xyz
  1  'x, y, z'
loop_
 _atom_site_type_symbol
 _atom_site_label
 _atom_site_symmetry_multiplicity
 _atom_site_fract_x
 _atom_site_fract_y
 _atom_site_fract_z
 _atom_site_occupancy
  C  C0  1  0.44758233  0.24126983  0.44071326  1
  C  C1  1  0.97239287  0.23891252  0.08903630  1
  C  C2  1  0.55195269  0.77102310  0.55453040  1
  C  C3  1  0.04228102  0.76029794  0.92494805  1
  N  N4  1  0.56560252  0.24408770  0.58618225  1
  N  N5  1  0.07164834  0.24144993  0.92938602  1
  N  N6  1  0.43298469  0.73852061  0.41718776  1
  N  N7  1  0.92007432  0.75666582  0.06799772  1
  H  H8  1  0.52150979  0.25079005  0.32388695  1
  H  H9  1  0.37932708  0.14823539  0.44642592  1
  H  H10  1  0.35849598  0.32304853  0.44871483  1
  H  H11  1  0.65982623  0.17384786  0.58135297  1
  H  H12  1  0.62532185  0.33409898  0.58994100  1
  H  H13  1  0.50446117  0.22940111  0.70202058  1
  H  H14  1  0.06091990  0.24356931  0.19444092  1
  H  H15  1  0.89963342  0.14802048  0.09856385  1
  H  H16  1  0.88644693  0.32306727  0.08651734  1
  H  H17  1  0.15900021  0.16555012  0.92801856  1
  H  H18  1  0.13883181  0.32813592  0.90882619  1
  H  H19  1  0.99548312  0.23244502  0.82377443  1
  H  H20  1  0.48240110  0.76985684  0.67415722  1
  H  H21  1  0.65382149  0.69818036  0.55938000  1
  H  H22  1  0.60483409  0.86813317  0.52689333  1
  H  H23  1  0.32866851  0.80047394  0.41291785  1
  H  H24  1  0.38528114  0.64465959  0.43268264  1
  H  H25  1  0.48871560  0.74570923  0.29760813  1
  H  H26  1  0.97095351  0.75332634  0.80757376  1
  H  H27  1  0.11260951  0.85213710  0.92497029  1
  H  H28  1  0.12896626  0.67716105  0.94020919  1
  H  H29  1  0.83285463  0.83224421  0.05510831  1
  H  H30  1  0.85259961  0.66967878  0.07214220  1
  H  H31  1  0.97927821  0.76550314  0.18403940  1
  Ge  Ge32  1  0.49765232  0.99928828  0.00625064  1
  Ge  Ge33  1  0.98240868  0.50374125  0.47211006  1
  Au  Au34  1  0.99443377  0.00624358  0.49919955  1
  Au  Au35  1  0.53742268  0.50239123  0.81045804  1
  Cl  Cl36  1  0.49890468  0.22653589  0.99726820  1
  Cl  Cl37  1  0.25684382  0.99547165  0.18019079  1
  Cl  Cl38  1  0.67540533  0.99240300  0.24296070  1
  Cl  Cl39  1  0.97578620  0.23012969  0.53545164  1
  Cl  Cl40  1  0.32316704  0.00857743  0.76466093  1
  Cl  Cl41  1  0.74043251  0.99938912  0.83041013  1
  Cl  Cl42  1  0.49704888  0.76993010  0.01263556  1
  Cl  Cl43  1  0.72753793  0.50611800  0.31762229  1
  Cl  Cl44  1  0.17631946  0.51168519  0.24727419  1
  Cl  Cl45  1  0.02098637  0.78212565  0.46905897  1
  Cl  Cl46  1  0.25562226  0.49507376  0.74094245  1
  Cl  Cl47  1  0.82529189  0.50147320  0.84365484  1
