# generated using pymatgen
data_GeH12PtC2(NCl3)2
_symmetry_space_group_name_H-M   'P 1'
_cell_length_a   7.90988877
_cell_length_b   10.25967097
_cell_length_c   7.83791743
_cell_angle_alpha   89.87323090
_cell_angle_beta   89.98828164
_cell_angle_gamma   89.95430461
_symmetry_Int_Tables_number   1
_chemical_formula_structural   GeH12PtC2(NCl3)2
_chemical_formula_sum   'Ge2 H24 Pt2 C4 N4 Cl12'
_cell_volume   636.06761385
_cell_formula_units_Z   2
loop_
 _symmetry_equiv_pos_site_id
 _symmetry_equiv_pos_as_xyz
  1  'x, y, z'
loop_
 _atom_site_type_symbol
 _atom_site_label
 _atom_site_symmetry_multiplicity
 _atom_site_fract_x
 _atom_site_fract_y
 _atom_site_fract_z
 _atom_site_occupancy
  C  C0  1  0.49443213  0.26349131  0.41510422  1
  C  C1  1  0.93186620  0.19875591  0.07159167  1
  C  C2  1  0.56726374  0.69884995  0.57166033  1
  C  C3  1  0.00595423  0.76353175  0.91564076  1
  N  N4  1  0.50885413  0.27699128  0.60305624  1
  N  N5  1  0.02367383  0.27062856  0.93541535  1
  N  N6  1  0.47641051  0.76977040  0.43395891  1
  N  N7  1  0.99135960  0.77737664  0.10354759  1
  H  H8  1  0.60963173  0.21886690  0.36513142  1
  H  H9  1  0.38664799  0.20039278  0.38595425  1
  H  H10  1  0.47721836  0.36002817  0.35796700  1
  H  H11  1  0.53384823  0.18856045  0.66285997  1
  H  H12  1  0.60450663  0.34048613  0.64080498  1
  H  H13  1  0.39860951  0.31395181  0.65589470  1
  H  H14  1  0.02241891  0.14095002  0.14561865  1
  H  H15  1  0.83747064  0.13492223  0.01327222  1
  H  H16  1  0.86632830  0.26918174  0.15308937  1
  H  H17  1  0.06254242  0.20776430  0.83905405  1
  H  H18  1  0.13518988  0.31344834  0.97854512  1
  H  H19  1  0.94560913  0.34152738  0.88173783  1
  H  H20  1  0.47596417  0.64270500  0.64681894  1
  H  H21  1  0.66091347  0.63347720  0.51481547  1
  H  H22  1  0.63356526  0.76975711  0.65165559  1
  H  H23  1  0.36512025  0.81367525  0.47612613  1
  H  H24  1  0.43722415  0.70616207  0.33862003  1
  H  H25  1  0.55500596  0.83972461  0.37925723  1
  H  H26  1  0.89122336  0.71827175  0.86583073  1
  H  H27  1  0.02222130  0.86002811  0.85814444  1
  H  H28  1  0.11439264  0.70087553  0.88676391  1
  H  H29  1  0.89531248  0.84071409  0.14114960  1
  H  H30  1  0.96694925  0.68900719  0.16364223  1
  H  H31  1  0.10137688  0.81471129  0.15623240  1
  Ge  Ge32  1  0.40137670  0.88288548  0.88279589  1
  Ge  Ge33  1  0.09837880  0.38249722  0.38307456  1
  Pt  Pt34  1  0.99053882  0.01493913  0.50998054  1
  Pt  Pt35  1  0.50963946  0.51479526  0.00936489  1
  Cl  Cl36  1  0.42096102  0.30196934  0.99798656  1
  Cl  Cl37  1  0.31503137  0.97966833  0.13700970  1
  Cl  Cl38  1  0.76614113  0.97383611  0.32686197  1
  Cl  Cl39  1  0.89533358  0.22710500  0.54225443  1
  Cl  Cl40  1  0.21601807  0.06928558  0.68331391  1
  Cl  Cl41  1  0.63422220  0.01153775  0.81654279  1
  Cl  Cl42  1  0.60470627  0.72692294  0.04139196  1
  Cl  Cl43  1  0.86581436  0.51179156  0.31723795  1
  Cl  Cl44  1  0.28369915  0.56884274  0.18251176  1
  Cl  Cl45  1  0.07997083  0.80219393  0.49824286  1
  Cl  Cl46  1  0.18511850  0.47949428  0.63671529  1
  Cl  Cl47  1  0.73396816  0.47372836  0.82605022  1
