# generated using pymatgen
data_BaGeH12C2(NCl3)2
_symmetry_space_group_name_H-M   'P 1'
_cell_length_a   8.04288046
_cell_length_b   11.27334394
_cell_length_c   7.53633011
_cell_angle_alpha   88.35722124
_cell_angle_beta   89.98483142
_cell_angle_gamma   89.99651202
_symmetry_Int_Tables_number   1
_chemical_formula_structural   BaGeH12C2(NCl3)2
_chemical_formula_sum   'Ba2 Ge2 H24 C4 N4 Cl12'
_cell_volume   683.03936273
_cell_formula_units_Z   2
loop_
 _symmetry_equiv_pos_site_id
 _symmetry_equiv_pos_as_xyz
  1  'x, y, z'
loop_
 _atom_site_type_symbol
 _atom_site_label
 _atom_site_symmetry_multiplicity
 _atom_site_fract_x
 _atom_site_fract_y
 _atom_site_fract_z
 _atom_site_occupancy
  C  C0  1  0.40901997  0.25123898  0.42318404  1
  C  C1  1  0.90948893  0.24884967  0.07677388  1
  C  C2  1  0.59098135  0.74934835  0.57733936  1
  C  C3  1  0.09058469  0.75109328  0.92346327  1
  N  N4  1  0.56319801  0.24770293  0.53066906  1
  N  N5  1  0.06347762  0.25237357  0.96891527  1
  N  N6  1  0.43724557  0.75150173  0.46914681  1
  N  N7  1  0.93670714  0.74844203  0.03154797  1
  H  H8  1  0.44331300  0.25073355  0.28268519  1
  H  H9  1  0.33748425  0.17120065  0.45567920  1
  H  H10  1  0.33837775  0.33090970  0.45331994  1
  H  H11  1  0.63059052  0.17278242  0.49854059  1
  H  H12  1  0.63598666  0.32213941  0.50164908  1
  H  H13  1  0.53732857  0.24358055  0.66685758  1
  H  H14  1  0.94407415  0.24850230  0.21720951  1
  H  H15  1  0.83815697  0.16962763  0.04591856  1
  H  H16  1  0.83851787  0.32933470  0.04550433  1
  H  H17  1  0.13610762  0.17782102  0.99759650  1
  H  H18  1  0.13106905  0.32719590  0.00120700  1
  H  H19  1  0.03741243  0.25667936  0.83280427  1
  H  H20  1  0.55610712  0.74969393  0.71768779  1
  H  H21  1  0.66312447  0.67026809  0.54767509  1
  H  H22  1  0.66127398  0.82999283  0.54511671  1
  H  H23  1  0.36859361  0.82598108  0.50041535  1
  H  H24  1  0.36540372  0.67657826  0.49835544  1
  H  H25  1  0.46359932  0.75541698  0.33305416  1
  H  H26  1  0.05593862  0.74967679  0.78313785  1
  H  H27  1  0.16142488  0.83092719  0.95219178  1
  H  H28  1  0.16209424  0.67121758  0.95695844  1
  H  H29  1  0.86423013  0.82297558  0.00206254  1
  H  H30  1  0.86874036  0.67360798  0.00058062  1
  H  H31  1  0.96299024  0.74480061  0.16765364  1
  Ge  Ge32  1  0.49922296  0.99973656  0.99998977  1
  Ge  Ge33  1  0.99980693  0.49985121  0.49938057  1
  Ba  Ba34  1  0.99947222  0.99981764  0.50021743  1
  Ba  Ba35  1  0.50048249  0.49975332  0.99885437  1
  Cl  Cl36  1  0.47877504  0.23484270  0.93962242  1
  Cl  Cl37  1  0.20611378  0.01480130  0.16349037  1
  Cl  Cl38  1  0.66765779  0.02045424  0.30620092  1
  Cl  Cl39  1  0.97825359  0.26466842  0.56013947  1
  Cl  Cl40  1  0.33140974  0.97923267  0.69361977  1
  Cl  Cl41  1  0.79226075  0.98511640  0.83657578  1
  Cl  Cl42  1  0.52116011  0.76442368  0.06024350  1
  Cl  Cl43  1  0.70677048  0.48542269  0.33599937  1
  Cl  Cl44  1  0.16868666  0.47936327  0.19265886  1
  Cl  Cl45  1  0.02163517  0.73507886  0.43999417  1
  Cl  Cl46  1  0.29299486  0.51465142  0.66293316  1
  Cl  Cl47  1  0.83267833  0.52066922  0.80547586  1
