# generated using pymatgen
data_SnGeH12C2(NCl3)2
_symmetry_space_group_name_H-M   'P 1'
_cell_length_a   8.08436650
_cell_length_b   11.14823619
_cell_length_c   7.55130631
_cell_angle_alpha   89.27809497
_cell_angle_beta   90.29618548
_cell_angle_gamma   90.02189158
_symmetry_Int_Tables_number   1
_chemical_formula_structural   SnGeH12C2(NCl3)2
_chemical_formula_sum   'Sn2 Ge2 H24 C4 N4 Cl12'
_cell_volume   680.50911226
_cell_formula_units_Z   2
loop_
 _symmetry_equiv_pos_site_id
 _symmetry_equiv_pos_as_xyz
  1  'x, y, z'
loop_
 _atom_site_type_symbol
 _atom_site_label
 _atom_site_symmetry_multiplicity
 _atom_site_fract_x
 _atom_site_fract_y
 _atom_site_fract_z
 _atom_site_occupancy
  C  C0  1  0.41761716  0.25335512  0.42827586  1
  C  C1  1  0.91425026  0.24271065  0.07148052  1
  C  C2  1  0.58289970  0.75369225  0.56853329  1
  C  C3  1  0.07916391  0.74149922  0.92576196  1
  N  N4  1  0.57391498  0.25357867  0.53223468  1
  N  N5  1  0.07109724  0.24761246  0.97033315  1
  N  N6  1  0.42526063  0.75525265  0.46660215  1
  N  N7  1  0.92201154  0.74324419  0.02643607  1
  H  H8  1  0.44817017  0.25227529  0.28728592  1
  H  H9  1  0.34739164  0.17287311  0.46364284  1
  H  H10  1  0.34702265  0.33389375  0.45920008  1
  H  H11  1  0.64245697  0.17732607  0.50348733  1
  H  H12  1  0.64504043  0.32801529  0.49860262  1
  H  H13  1  0.55093861  0.25538471  0.66811569  1
  H  H14  1  0.94435510  0.24093096  0.21284640  1
  H  H15  1  0.84703915  0.16158087  0.03515133  1
  H  H16  1  0.84171237  0.32271350  0.03914550  1
  H  H17  1  0.14492213  0.17411120  0.00274319  1
  H  H18  1  0.13626893  0.32423278  0.00293754  1
  H  H19  1  0.04938615  0.24810379  0.83366059  1
  H  H20  1  0.55344990  0.75317486  0.70964786  1
  H  H21  1  0.65178747  0.67301231  0.53456480  1
  H  H22  1  0.65257067  0.83454183  0.53439370  1
  H  H23  1  0.35518561  0.82864042  0.50251207  1
  H  H24  1  0.35755170  0.67844473  0.49628051  1
  H  H25  1  0.44596180  0.76062258  0.33035976  1
  H  H26  1  0.04952612  0.73839085  0.78438382  1
  H  H27  1  0.14981622  0.82246055  0.95543629  1
  H  H28  1  0.14835137  0.66124738  0.96502088  1
  H  H29  1  0.85479392  0.81960697  0.99295849  1
  H  H30  1  0.85106355  0.66876732  0.99336410  1
  H  H31  1  0.94327754  0.74147608  0.16288851  1
  Ge  Ge32  1  0.48677963  0.00044300  0.99895360  1
  Ge  Ge33  1  0.99246824  0.50526487  0.47346921  1
  Sn  Sn34  1  0.98912244  0.00594494  0.51933794  1
  Sn  Sn35  1  0.49488308  0.50255177  0.97858944  1
  Cl  Cl36  1  0.48210579  0.26957366  0.94217332  1
  Cl  Cl37  1  0.23164693  0.01348607  0.16408806  1
  Cl  Cl38  1  0.71821706  0.02163835  0.33865001  1
  Cl  Cl39  1  0.98660601  0.23917510  0.56069731  1
  Cl  Cl40  1  0.34389738  0.98618889  0.71939731  1
  Cl  Cl41  1  0.82524421  0.98261120  0.80837359  1
  Cl  Cl42  1  0.51191909  0.78243472  0.05375353  1
  Cl  Cl43  1  0.72767465  0.48807014  0.32610483  1
  Cl  Cl44  1  0.15528446  0.47989589  0.21014297  1
  Cl  Cl45  1  0.00940828  0.72568791  0.43871708  1
  Cl  Cl46  1  0.32390590  0.51972853  0.68806385  1
  Cl  Cl47  1  0.77660499  0.51461081  0.82149701  1
