# generated using pymatgen
data_CdGeH12C2(NCl3)2
_symmetry_space_group_name_H-M   'P 1'
_cell_length_a   7.62099249
_cell_length_b   10.65724103
_cell_length_c   7.37401898
_cell_angle_alpha   90.15459757
_cell_angle_beta   89.99622727
_cell_angle_gamma   90.00168664
_symmetry_Int_Tables_number   1
_chemical_formula_structural   CdGeH12C2(NCl3)2
_chemical_formula_sum   'Cd2 Ge2 H24 C4 N4 Cl12'
_cell_volume   598.90645050
_cell_formula_units_Z   2
loop_
 _symmetry_equiv_pos_site_id
 _symmetry_equiv_pos_as_xyz
  1  'x, y, z'
loop_
 _atom_site_type_symbol
 _atom_site_label
 _atom_site_symmetry_multiplicity
 _atom_site_fract_x
 _atom_site_fract_y
 _atom_site_fract_z
 _atom_site_occupancy
  C  C0  1  0.40482055  0.25009253  0.41664084  1
  C  C1  1  0.90551663  0.24998060  0.08376378  1
  C  C2  1  0.59517479  0.74991649  0.58338729  1
  C  C3  1  0.09449358  0.75001974  0.91623574  1
  N  N4  1  0.56503788  0.25022144  0.52904994  1
  N  N5  1  0.06532434  0.24970831  0.97071853  1
  N  N6  1  0.43495234  0.74978263  0.47098664  1
  N  N7  1  0.93468131  0.75029104  0.02927378  1
  H  H8  1  0.44315016  0.24990478  0.27407498  1
  H  H9  1  0.32910428  0.16624266  0.44745130  1
  H  H10  1  0.32965158  0.33429942  0.44732159  1
  H  H11  1  0.63980482  0.17151656  0.50002040  1
  H  H12  1  0.63975738  0.32876263  0.49964507  1
  H  H13  1  0.53623925  0.25071510  0.66736934  1
  H  H14  1  0.94437999  0.25018885  0.22616086  1
  H  H15  1  0.83012506  0.16579291  0.05346726  1
  H  H16  1  0.82978310  0.33385757  0.05321177  1
  H  H17  1  0.14003952  0.17114461  -0.00011765  1
  H  H18  1  0.14028412  0.32839081  0.99941926  1
  H  H19  1  0.03604508  0.24921271  0.83251349  1
  H  H20  1  0.55685062  0.75011730  0.72595482  1
  H  H21  1  0.67033669  0.66570397  0.55272158  1
  H  H22  1  0.67089561  0.83376088  0.55255930  1
  H  H23  1  0.36018975  0.82849081  0.50001438  1
  H  H24  1  0.36023758  0.67124160  0.50040811  1
  H  H25  1  0.46374520  0.74928228  0.33266535  1
  H  H26  1  0.05563372  0.74980966  0.77383791  1
  H  H27  1  0.16988391  0.83420784  0.94653353  1
  H  H28  1  0.17022591  0.66614217  0.94678744  1
  H  H29  1  0.85996602  0.82885426  1.00010521  1
  H  H30  1  0.85972552  0.67160649  0.00056563  1
  H  H31  1  0.96395384  0.75078871  0.16747915  1
  Ge  Ge32  1  0.50001603  0.99999988  0.00003732  1
  Ge  Ge33  1  0.99997516  0.50001913  0.49992316  1
  Cd  Cd34  1  0.00001103  0.00001293  0.50001268  1
  Cd  Cd35  1  0.50000961  0.50000796  0.99995814  1
  Cl  Cl36  1  0.48407650  0.25145380  0.94879092  1
  Cl  Cl37  1  0.19845475  0.00680456  0.19718413  1
  Cl  Cl38  1  0.70205725  0.00599049  0.30554100  1
  Cl  Cl39  1  0.98354518  0.24849991  0.55139846  1
  Cl  Cl40  1  0.29792104  0.99400983  0.69445084  1
  Cl  Cl41  1  0.80153245  0.99319044  0.80283161  1
  Cl  Cl42  1  0.51592916  0.74854028  0.05125838  1
  Cl  Cl43  1  0.69846511  0.49316206  0.30277484  1
  Cl  Cl44  1  0.20206448  0.49401865  0.19439758  1
  Cl  Cl45  1  0.01643187  0.75149036  0.44859955  1
  Cl  Cl46  1  0.30159180  0.50684350  0.69726337  1
  Cl  Cl47  1  0.79793218  0.50598715  0.80564801  1
