# generated using pymatgen
data_H12WC2(I2N)3
_symmetry_space_group_name_H-M   'P 1'
_cell_length_a   9.49098947
_cell_length_b   10.91611647
_cell_length_c   8.28318777
_cell_angle_alpha   100.23206069
_cell_angle_beta   84.76403550
_cell_angle_gamma   93.44035278
_symmetry_Int_Tables_number   1
_chemical_formula_structural   H12WC2(I2N)3
_chemical_formula_sum   'H24 W2 C4 I12 N6'
_cell_volume   840.16510316
_cell_formula_units_Z   2
loop_
 _symmetry_equiv_pos_site_id
 _symmetry_equiv_pos_as_xyz
  1  'x, y, z'
loop_
 _atom_site_type_symbol
 _atom_site_label
 _atom_site_symmetry_multiplicity
 _atom_site_fract_x
 _atom_site_fract_y
 _atom_site_fract_z
 _atom_site_occupancy
  C  C0  1  0.61726864  0.36390060  0.48301464  1
  C  C1  1  0.85037464  0.17836857  0.06491136  1
  C  C2  1  0.66900260  0.69310094  0.44582479  1
  C  C3  1  0.88405729  0.83832313  0.92955716  1
  N  N4  1  0.59456162  0.30207189  0.63005099  1
  N  N5  1  0.94983788  0.22957700  0.94108790  1
  N  N6  1  0.52797390  0.69861852  0.38250804  1
  N  N7  1  0.82097766  0.77497987  0.06584462  1
  H  H8  1  0.72629156  0.40277210  0.47635723  1
  H  H9  1  0.60071728  0.29395221  0.37336391  1
  H  H10  1  0.54091538  0.43678467  0.49343479  1
  H  H11  1  0.66986775  0.23288667  0.61957780  1
  H  H12  1  0.60645130  0.36287335  0.74105898  1
  H  H13  1  0.49468924  0.25930042  0.63864788  1
  H  H14  1  0.90724115  0.16498624  0.16956836  1
  H  H15  1  0.80089273  0.09089837  0.00550503  1
  H  H16  1  0.76701346  0.24461587  0.10728910  1
  H  H17  1  0.05098908  0.19597223  0.93600442  1
  H  H18  1  0.96222901  0.32558861  0.96934553  1
  H  H19  1  0.91733582  0.20625603  0.82027198  1
  H  H20  1  0.65549237  0.68907351  0.57733617  1
  H  H21  1  0.72065149  0.60971708  0.37858743  1
  H  H22  1  0.73375268  0.77750278  0.42991691  1
  H  H23  1  0.50247511  0.79008470  0.38384261  1
  H  H24  1  0.44326986  0.65347729  0.44883610  1
  H  H25  1  0.52963441  0.65110615  0.26138436  1
  H  H26  1  0.80629000  0.83404312  0.83859402  1
  H  H27  1  0.91001550  0.93523644  0.98197657  1
  H  H28  1  0.97990016  0.79185450  0.87374061  1
  H  H29  1  0.73256282  0.82305928  0.12426368  1
  H  H30  1  0.78904545  0.68215646  0.02558738  1
  H  H31  1  0.89511531  0.77635264  0.15075965  1
  N  N32  1  0.25348072  0.87224584  0.79005728  1
  N  N33  1  0.30268189  0.56872472  0.51999542  1
  W  W34  1  0.35961003  0.91015177  0.95485834  1
  W  W35  1  0.16921543  0.45995522  0.54015428  1
  I  I36  1  0.31540676  0.15741465  0.96851063  1
  I  I37  1  0.15062893  0.87772601  0.19719470  1
  I  I38  1  0.54789435  0.98877588  0.22935584  1
  I  I39  1  0.27306652  0.24547018  0.40495126  1
  I  I40  1  0.59053167  0.98440859  0.74145646  1
  I  I41  1  0.88571853  0.12030249  0.52691657  1
  I  I42  1  0.49485408  0.69945581  0.89667393  1
  I  I43  1  0.62829158  0.45391048  0.05894781  1
  I  I44  1  0.03153441  0.49737862  0.27856599  1
  I  I45  1  0.19469857  0.87598397  0.56288637  1
  I  I46  1  0.23193282  0.44035502  0.84713136  1
  I  I47  1  0.91358430  0.53832778  0.71459035  1
