# generated using pymatgen
data_SrGeH12C2(NCl3)2
_symmetry_space_group_name_H-M   'P 1'
_cell_length_a   7.79991189
_cell_length_b   11.01883257
_cell_length_c   7.48628580
_cell_angle_alpha   89.05437544
_cell_angle_beta   90.00318772
_cell_angle_gamma   90.00238096
_symmetry_Int_Tables_number   1
_chemical_formula_structural   SrGeH12C2(NCl3)2
_chemical_formula_sum   'Sr2 Ge2 H24 C4 N4 Cl12'
_cell_volume   643.32811385
_cell_formula_units_Z   2
loop_
 _symmetry_equiv_pos_site_id
 _symmetry_equiv_pos_as_xyz
  1  'x, y, z'
loop_
 _atom_site_type_symbol
 _atom_site_label
 _atom_site_symmetry_multiplicity
 _atom_site_fract_x
 _atom_site_fract_y
 _atom_site_fract_z
 _atom_site_occupancy
  C  C0  1  0.39426220  0.25055392  0.41219648  1
  C  C1  1  0.89523920  0.24956923  0.08873597  1
  C  C2  1  0.60573475  0.74945174  0.58781595  1
  C  C3  1  0.10476548  0.75043204  0.91127548  1
  N  N4  1  0.55031738  0.24937685  0.52433702  1
  N  N5  1  0.05068949  0.25059841  0.97572010  1
  N  N6  1  0.44967924  0.75062952  0.47567603  1
  N  N7  1  0.94931614  0.74939950  0.02429265  1
  H  H8  1  0.43238195  0.25042239  0.27169252  1
  H  H9  1  0.32120004  0.16841769  0.44226857  1
  H  H10  1  0.31932622  0.33131083  0.44129781  1
  H  H11  1  0.62249090  0.17310855  0.49506332  1
  H  H12  1  0.62415521  0.32589365  0.49628147  1
  H  H13  1  0.52093407  0.24709005  0.66052758  1
  H  H14  1  0.93415663  0.24970207  0.22900100  1
  H  H15  1  0.81997904  0.16886737  0.06013735  1
  H  H16  1  0.82216057  0.33177854  0.05912349  1
  H  H17  1  0.12454365  0.17403707  0.00347844  1
  H  H18  1  0.12310523  0.32682680  0.00454607  1
  H  H19  1  0.02063787  0.25284964  0.83969073  1
  H  H20  1  0.56761567  0.74958585  0.72831993  1
  H  H21  1  0.68066858  0.66869346  0.55871655  1
  H  H22  1  0.67879909  0.83158665  0.55774116  1
  H  H23  1  0.37750638  0.82689800  0.50495055  1
  H  H24  1  0.37584115  0.67411259  0.50373171  1
  H  H25  1  0.47906223  0.75291645  0.33948571  1
  H  H26  1  0.06584670  0.75030139  0.77101068  1
  H  H27  1  0.18002504  0.83113368  0.93987655  1
  H  H28  1  0.17784488  0.66822247  0.94088361  1
  H  H29  1  0.87545965  0.82595989  0.99653601  1
  H  H30  1  0.87690286  0.67317014  0.99546591  1
  H  H31  1  0.97936854  0.74714798  0.16032202  1
  Ge  Ge32  1  0.50000311  0.00000186  0.00000906  1
  Ge  Ge33  1  0.99999860  0.50000209  0.50000374  1
  Sr  Sr34  1  0.00000104  0.00000189  0.50000808  1
  Sr  Sr35  1  0.49999950  0.50000346  0.00000314  1
  Cl  Cl36  1  0.47265206  0.24215606  0.94001862  1
  Cl  Cl37  1  0.19857775  0.00985356  0.17384737  1
  Cl  Cl38  1  0.67660627  0.01358490  0.31064967  1
  Cl  Cl39  1  0.97208359  0.25782620  0.56046521  1
  Cl  Cl40  1  0.32339464  0.98642035  0.68936709  1
  Cl  Cl41  1  0.80142905  0.99014566  0.82617078  1
  Cl  Cl42  1  0.52735089  0.75785174  0.05999505  1
  Cl  Cl43  1  0.69854612  0.49001018  0.32608637  1
  Cl  Cl44  1  0.17669958  0.48650034  0.18936158  1
  Cl  Cl45  1  0.02791246  0.74217653  0.43954866  1
  Cl  Cl46  1  0.30145334  0.50999527  0.67391942  1
  Cl  Cl47  1  0.82329970  0.51350381  0.81064432  1
