# generated using pymatgen
data_TlAsH12C2(NCl3)2
_symmetry_space_group_name_H-M   'P 1'
_cell_length_a   7.90584478
_cell_length_b   11.14592577
_cell_length_c   7.53145680
_cell_angle_alpha   85.97056662
_cell_angle_beta   89.99454133
_cell_angle_gamma   90.02572076
_symmetry_Int_Tables_number   1
_chemical_formula_structural   TlAsH12C2(NCl3)2
_chemical_formula_sum   'Tl2 As2 H24 C4 N4 Cl12'
_cell_volume   662.01602604
_cell_formula_units_Z   2
loop_
 _symmetry_equiv_pos_site_id
 _symmetry_equiv_pos_as_xyz
  1  'x, y, z'
loop_
 _atom_site_type_symbol
 _atom_site_label
 _atom_site_symmetry_multiplicity
 _atom_site_fract_x
 _atom_site_fract_y
 _atom_site_fract_z
 _atom_site_occupancy
  C  C0  1  0.39710909  0.25000917  0.41250565  1
  C  C1  1  0.89791249  0.25001411  0.08830980  1
  C  C2  1  0.60288848  0.74999574  0.58750790  1
  C  C3  1  0.10209178  0.74998728  0.91170166  1
  N  N4  1  0.55273797  0.24658537  0.52265644  1
  N  N5  1  0.05306460  0.25334926  0.97734312  1
  N  N6  1  0.44725788  0.75342089  0.47735656  1
  N  N7  1  0.94694114  0.74664947  0.02266709  1
  H  H8  1  0.43350665  0.25205018  0.27217098  1
  H  H9  1  0.32449468  0.16829385  0.44685158  1
  H  H10  1  0.32406041  0.32967322  0.43950791  1
  H  H11  1  0.62367146  0.17205963  0.49511059  1
  H  H12  1  0.62567075  0.32327931  0.49344784  1
  H  H13  1  0.52486803  0.24031890  0.65870076  1
  H  H14  1  0.93500653  0.24797036  0.22844852  1
  H  H15  1  0.82452868  0.17038870  0.06173901  1
  H  H16  1  0.82538696  0.33177812  0.05440874  1
  H  H17  1  0.12592752  0.17663980  0.00628691  1
  H  H18  1  0.12427739  0.32785842  0.00443790  1
  H  H19  1  0.02461338  0.25956654  0.84144471  1
  H  H20  1  0.56649101  0.74795685  0.72784204  1
  H  H21  1  0.67593409  0.67033043  0.56050667  1
  H  H22  1  0.67550439  0.83170971  0.55315938  1
  H  H23  1  0.37632626  0.82794668  0.50490322  1
  H  H24  1  0.37432514  0.67672705  0.50656559  1
  H  H25  1  0.47512850  0.75968720  0.34131333  1
  H  H26  1  0.06499847  0.75203270  0.77156221  1
  H  H27  1  0.17547553  0.82961271  0.93827459  1
  H  H28  1  0.17461900  0.66822318  0.94559965  1
  H  H29  1  0.87407548  0.82335814  0.99372511  1
  H  H30  1  0.87572962  0.67213912  0.99557154  1
  H  H31  1  0.97539120  0.74043173  0.15856670  1
  As  As32  1  0.50000255  0.00000234  0.00000831  1
  As  As33  1  0.99999869  0.50000184  0.50000399  1
  Tl  Tl34  1  0.00000011  0.00000214  0.50000827  1
  Tl  Tl35  1  0.49999965  0.50000286  0.00000304  1
  Cl  Cl36  1  0.47648362  0.22428217  0.93802197  1
  Cl  Cl37  1  0.21728060  0.00459623  0.15125034  1
  Cl  Cl38  1  0.64602348  0.01854823  0.29320298  1
  Cl  Cl39  1  0.97604786  0.27570609  0.56229358  1
  Cl  Cl40  1  0.35398051  0.98145788  0.70681551  1
  Cl  Cl41  1  0.78272674  0.99540520  0.84876688  1
  Cl  Cl42  1  0.52352065  0.77572450  0.06199337  1
  Cl  Cl43  1  0.71742425  0.49526395  0.34856576  1
  Cl  Cl44  1  0.14620277  0.48150153  0.20691623  1
  Cl  Cl45  1  0.02394864  0.72429719  0.43771786  1
  Cl  Cl46  1  0.28257438  0.50474062  0.65144202  1
  Cl  Cl47  1  0.85379465  0.51850170  0.79309277  1
