# generated using pymatgen
data_AsH12AuC2(NCl3)2
_symmetry_space_group_name_H-M   'P 1'
_cell_length_a   7.75093015
_cell_length_b   11.44221274
_cell_length_c   7.24550168
_cell_angle_alpha   86.98978644
_cell_angle_beta   102.54820999
_cell_angle_gamma   89.85746277
_symmetry_Int_Tables_number   1
_chemical_formula_structural   AsH12AuC2(NCl3)2
_chemical_formula_sum   'As2 H24 Au2 C4 N4 Cl12'
_cell_volume   626.30927479
_cell_formula_units_Z   2
loop_
 _symmetry_equiv_pos_site_id
 _symmetry_equiv_pos_as_xyz
  1  'x, y, z'
loop_
 _atom_site_type_symbol
 _atom_site_label
 _atom_site_symmetry_multiplicity
 _atom_site_fract_x
 _atom_site_fract_y
 _atom_site_fract_z
 _atom_site_occupancy
  C  C0  1  0.42588604  0.25992071  0.43990936  1
  C  C1  1  0.92685926  0.24375384  0.05459547  1
  C  C2  1  0.57411289  0.74011172  0.56015073  1
  C  C3  1  0.07318186  0.75623311  0.94537202  1
  N  N4  1  0.60628276  0.23812421  0.55665579  1
  N  N5  1  0.09732538  0.26711735  0.99955855  1
  N  N6  1  0.39369141  0.76186505  0.44344050  1
  N  N7  1  0.90268536  0.73288868  0.00035327  1
  H  H8  1  0.43491052  0.26982972  0.29132191  1
  H  H9  1  0.34393097  0.18521860  0.46268758  1
  H  H10  1  0.37247930  0.33973534  0.48368211  1
  H  H11  1  0.66123523  0.16310328  0.51730638  1
  H  H12  1  0.68970163  0.30640948  0.54029474  1
  H  H13  1  0.60065527  0.22718091  0.69917451  1
  H  H14  1  0.95095923  0.22956939  0.20851466  1
  H  H15  1  0.86987361  0.16534156  0.98697484  1
  H  H16  1  0.83910580  0.31958751  0.00929746  1
  H  H17  1  0.18431630  0.19681368  0.04391671  1
  H  H18  1  0.15247795  0.34255857  0.05979803  1
  H  H19  1  0.08072468  0.27858284  0.85268340  1
  H  H20  1  0.56512508  0.73024144  0.70875281  1
  H  H21  1  0.62752793  0.66028708  0.51642039  1
  H  H22  1  0.65603680  0.81481542  0.53729394  1
  H  H23  1  0.33872636  0.83688868  0.48276678  1
  H  H24  1  0.31031106  0.69356954  0.45987365  1
  H  H25  1  0.39927935  0.77278307  0.30091076  1
  H  H26  1  0.04912641  0.77040066  0.79145255  1
  H  H27  1  0.13015754  0.83464941  0.01298759  1
  H  H28  1  0.16092206  0.68039757  0.99071694  1
  H  H29  1  0.81572222  0.80320663  0.95597779  1
  H  H30  1  0.84752792  0.65745253  0.94009651  1
  H  H31  1  0.91924856  0.72142303  0.14722340  1
  As  As32  1  0.50000816  0.99999430  0.00004453  1
  As  As33  1  0.99996744  0.50000163  0.49996411  1
  Au  Au34  1  0.00000520  0.00000053  0.50002657  1
  Au  Au35  1  0.50001479  0.50000730  0.99999211  1
  Cl  Cl36  1  0.48999935  0.21584561  0.94842609  1
  Cl  Cl37  1  0.25428878  0.01419162  0.16474993  1
  Cl  Cl38  1  0.70697788  0.01847328  0.33642823  1
  Cl  Cl39  1  0.01955647  0.28358420  0.55065415  1
  Cl  Cl40  1  0.29303254  0.98154448  0.66362421  1
  Cl  Cl41  1  0.74571762  0.98580475  0.83529209  1
  Cl  Cl42  1  0.51003655  0.78415547  0.05167869  1
  Cl  Cl43  1  0.67526891  0.47992754  0.30281348  1
  Cl  Cl44  1  0.15206157  0.49956180  0.23405942  1
  Cl  Cl45  1  0.98038219  0.71641815  0.44927289  1
  Cl  Cl46  1  0.32470752  0.52008196  0.69719790  1
  Cl  Cl47  1  0.84789203  0.50042504  0.76591108  1
