# generated using pymatgen
data_InAsH12C2(NCl3)2
_symmetry_space_group_name_H-M   'P 1'
_cell_length_a   7.91579256
_cell_length_b   11.09708783
_cell_length_c   7.51857824
_cell_angle_alpha   86.42650104
_cell_angle_beta   89.99107220
_cell_angle_gamma   90.02712313
_symmetry_Int_Tables_number   1
_chemical_formula_structural   InAsH12C2(NCl3)2
_chemical_formula_sum   'In2 As2 H24 C4 N4 Cl12'
_cell_volume   659.16457413
_cell_formula_units_Z   2
loop_
 _symmetry_equiv_pos_site_id
 _symmetry_equiv_pos_as_xyz
  1  'x, y, z'
loop_
 _atom_site_type_symbol
 _atom_site_label
 _atom_site_symmetry_multiplicity
 _atom_site_fract_x
 _atom_site_fract_y
 _atom_site_fract_z
 _atom_site_occupancy
  C  C0  1  0.40046523  0.24962572  0.41488156  1
  C  C1  1  0.90121025  0.25040670  0.08582031  1
  C  C2  1  0.59953133  0.75037969  0.58513192  1
  C  C3  1  0.09879436  0.74959434  0.91419071  1
  N  N4  1  0.55661209  0.24627156  0.52406799  1
  N  N5  1  0.05690556  0.25366775  0.97586662  1
  N  N6  1  0.44338424  0.75373418  0.47594583  1
  N  N7  1  0.94309797  0.74633031  0.02414243  1
  H  H8  1  0.43601644  0.25158604  0.27419347  1
  H  H9  1  0.32788740  0.16769970  0.44900562  1
  H  H10  1  0.32788343  0.32970432  0.44323705  1
  H  H11  1  0.62707486  0.17127078  0.49568320  1
  H  H12  1  0.62965882  0.32291323  0.49442728  1
  H  H13  1  0.52954530  0.24070801  0.66038091  1
  H  H14  1  0.93738455  0.24844633  0.22632000  1
  H  H15  1  0.82830172  0.17035832  0.05786935  1
  H  H16  1  0.82871899  0.33237171  0.05208888  1
  H  H17  1  0.12988837  0.17700941  0.00524733  1
  H  H18  1  0.12766284  0.32865336  0.00380150  1
  H  H19  1  0.02930729  0.25918109  0.83966891  1
  H  H20  1  0.56398036  0.74842146  0.72581990  1
  H  H21  1  0.67211089  0.67029964  0.55677837  1
  H  H22  1  0.67211076  0.83230432  0.55100545  1
  H  H23  1  0.37292155  0.82873532  0.50432945  1
  H  H24  1  0.37033727  0.67709255  0.50558713  1
  H  H25  1  0.47045106  0.75929778  0.33963290  1
  H  H26  1  0.06262136  0.75155515  0.77369059  1
  H  H27  1  0.17170094  0.82964318  0.94214357  1
  H  H28  1  0.17128746  0.66762979  0.94792116  1
  H  H29  1  0.87011405  0.82298846  0.99476167  1
  H  H30  1  0.87234358  0.67134390  0.99620401  1
  H  H31  1  0.97069424  0.74081654  0.16034033  1
  As  As32  1  0.50000183  0.00000186  0.00000854  1
  As  As33  1  0.99999827  0.50000232  0.50000137  1
  In  In34  1  0.99999387  0.00000357  0.50001189  1
  In  In35  1  0.50000360  0.50000031  0.99999323  1
  Cl  Cl36  1  0.47818614  0.22570131  0.94051568  1
  Cl  Cl37  1  0.22009545  0.00502399  0.15788842  1
  Cl  Cl38  1  0.65235380  0.01783193  0.29098130  1
  Cl  Cl39  1  0.97772511  0.27428353  0.55972953  1
  Cl  Cl40  1  0.34765651  0.98217471  0.70904551  1
  Cl  Cl41  1  0.77992063  0.99497680  0.84212664  1
  Cl  Cl42  1  0.52181671  0.77430978  0.05949857  1
  Cl  Cl43  1  0.72027649  0.49488772  0.34189095  1
  Cl  Cl44  1  0.15256115  0.48222082  0.20915319  1
  Cl  Cl45  1  0.02227018  0.72571783  0.44028191  1
  Cl  Cl46  1  0.27972859  0.50511867  0.65811997  1
  Cl  Cl47  1  0.84743083  0.51778251  0.79086449  1
