# generated using pymatgen
data_AgAsH12C2(NCl3)2
_symmetry_space_group_name_H-M   'P 1'
_cell_length_a   7.87137120
_cell_length_b   10.17275916
_cell_length_c   7.46942245
_cell_angle_alpha   88.03506456
_cell_angle_beta   90.06502730
_cell_angle_gamma   90.02742438
_symmetry_Int_Tables_number   1
_chemical_formula_structural   AgAsH12C2(NCl3)2
_chemical_formula_sum   'Ag2 As2 H24 C4 N4 Cl12'
_cell_volume   597.75114343
_cell_formula_units_Z   2
loop_
 _symmetry_equiv_pos_site_id
 _symmetry_equiv_pos_as_xyz
  1  'x, y, z'
loop_
 _atom_site_type_symbol
 _atom_site_label
 _atom_site_symmetry_multiplicity
 _atom_site_fract_x
 _atom_site_fract_y
 _atom_site_fract_z
 _atom_site_occupancy
  C  C0  1  0.42633152  0.25089616  0.43010003  1
  C  C1  1  0.92681740  0.24914244  0.06998554  1
  C  C2  1  0.57360410  0.74881355  0.56988696  1
  C  C3  1  0.07310237  0.75098561  0.93000988  1
  N  N4  1  0.58402214  0.24425880  0.53789261  1
  N  N5  1  0.08404919  0.25574942  0.96179122  1
  N  N6  1  0.41617293  0.75584048  0.46164876  1
  N  N7  1  0.91601696  0.74424080  0.03845334  1
  H  H8  1  0.46089829  0.25452607  0.28856951  1
  H  H9  1  0.35058862  0.16335635  0.46078344  1
  H  H10  1  0.35682143  0.33926796  0.46360745  1
  H  H11  1  0.65133181  0.16003971  0.51091449  1
  H  H12  1  0.66073292  0.32435382  0.50513180  1
  H  H13  1  0.55885817  0.24400812  0.67475261  1
  H  H14  1  0.96197586  0.24542997  0.21140484  1
  H  H15  1  0.85692440  0.16084821  0.03649060  1
  H  H16  1  0.85117458  0.33676881  0.03958600  1
  H  H17  1  0.16081625  0.17564169  0.99435127  1
  H  H18  1  0.15162824  0.33994380  0.98867627  1
  H  H19  1  0.05836298  0.25598244  0.82503038  1
  H  H20  1  0.53877885  0.74480403  0.71134661  1
  H  H21  1  0.64310871  0.66053344  0.53591816  1
  H  H22  1  0.64940237  0.83641186  0.53967647  1
  H  H23  1  0.34882450  0.84003157  0.48851676  1
  H  H24  1  0.33917336  0.67579276  0.49369985  1
  H  H25  1  0.44166410  0.75637737  0.32488202  1
  H  H26  1  0.03779897  0.75488571  0.78861202  1
  H  H27  1  0.14292579  0.83928107  0.96364900  1
  H  H28  1  0.14881340  0.66339098  0.96035062  1
  H  H29  1  0.83911243  0.82429282  0.00610566  1
  H  H30  1  0.84841877  0.66000740  0.01214812  1
  H  H31  1  0.94194648  0.74395329  0.17519600  1
  As  As32  1  0.49999886  1.00002101  0.99941658  1
  As  As33  1  0.00053444  0.49995239  0.50109344  1
  Ag  Ag34  1  0.99758659  0.00011382  0.49721629  1
  Ag  Ag35  1  0.49903572  0.49933166  0.00828407  1
  Cl  Cl36  1  0.49769253  0.25117404  0.95562215  1
  Cl  Cl37  1  0.23785678  0.00726668  0.19301102  1
  Cl  Cl38  1  0.68872752  0.00544232  0.27278718  1
  Cl  Cl39  1  0.99779903  0.24914236  0.54371795  1
  Cl  Cl40  1  0.31332643  0.99453913  0.72939657  1
  Cl  Cl41  1  0.76195522  0.99267772  0.80744290  1
  Cl  Cl42  1  0.50239070  0.75008133  0.04307502  1
  Cl  Cl43  1  0.73610779  0.49272048  0.30540182  1
  Cl  Cl44  1  0.18912304  0.49476881  0.22681371  1
  Cl  Cl45  1  0.00278680  0.75032467  0.45652001  1
  Cl  Cl46  1  0.26067456  0.50747798  0.69184900  1
  Cl  Cl47  1  0.81422984  0.50518734  0.76948059  1
