# generated using pymatgen
data_YAsH12C2(NCl3)2
_symmetry_space_group_name_H-M   'P 1'
_cell_length_a   7.21232702
_cell_length_b   12.71060550
_cell_length_c   7.13180658
_cell_angle_alpha   98.12128140
_cell_angle_beta   89.98867239
_cell_angle_gamma   89.89489150
_symmetry_Int_Tables_number   1
_chemical_formula_structural   YAsH12C2(NCl3)2
_chemical_formula_sum   'Y2 As2 H24 C4 N4 Cl12'
_cell_volume   647.23651846
_cell_formula_units_Z   2
loop_
 _symmetry_equiv_pos_site_id
 _symmetry_equiv_pos_as_xyz
  1  'x, y, z'
loop_
 _atom_site_type_symbol
 _atom_site_label
 _atom_site_symmetry_multiplicity
 _atom_site_fract_x
 _atom_site_fract_y
 _atom_site_fract_z
 _atom_site_occupancy
  C  C0  1  0.39061098  0.25304282  0.39359572  1
  C  C1  1  0.89198101  0.24701216  0.10689014  1
  C  C2  1  0.60938626  0.74696121  0.60641867  1
  C  C3  1  0.10802289  0.75299499  0.89312168  1
  N  N4  1  0.57267290  0.26380855  0.48977197  1
  N  N5  1  0.07363017  0.23620527  1.00970266  1
  N  N6  1  0.42732379  0.73619662  0.51024335  1
  N  N7  1  0.92637129  0.76379110  -0.00969425  1
  H  H8  1  0.41489842  0.23958661  0.24061082  1
  H  H9  1  0.31936708  0.18500886  0.43767357  1
  H  H10  1  0.30881781  0.32526795  0.43549256  1
  H  H11  1  0.65286722  0.19627320  0.45612353  1
  H  H12  1  0.64552913  0.32848345  0.45451074  1
  H  H13  1  0.55508211  0.27496125  0.63738309  1
  H  H14  1  0.91678696  0.26056337  0.25973680  1
  H  H15  1  0.81059255  0.17475772  0.06548343  1
  H  H16  1  0.81997471  0.31499657  0.06300576  1
  H  H17  1  0.14711493  0.17151034  0.04456384  1
  H  H18  1  0.15358175  0.30370540  0.04294623  1
  H  H19  1  0.05536141  0.22505673  0.86221936  1
  H  H20  1  0.58509962  0.76041785  0.75940375  1
  H  H21  1  0.69117782  0.67473556  0.56452159  1
  H  H22  1  0.68063129  0.81499464  0.56234003  1
  H  H23  1  0.34713135  0.80373265  0.54389212  1
  H  H24  1  0.35446632  0.67152219  0.54550482  1
  H  H25  1  0.44491410  0.72504367  0.36263211  1
  H  H26  1  0.08321829  0.73944700  0.74027416  1
  H  H27  1  0.18940053  0.82525288  0.93453480  1
  H  H28  1  0.18003872  0.68501277  0.93700039  1
  H  H29  1  0.85287698  0.82848245  0.95544863  1
  H  H30  1  0.84643176  0.69628622  0.95705619  1
  H  H31  1  0.94463795  0.77493782  0.13779011  1
  As  As32  1  0.50000833  0.00000146  0.00000356  1
  As  As33  1  0.00000229  0.50000213  0.50000660  1
  Y  Y34  1  0.00000260  0.00000135  0.50000300  1
  Y  Y35  1  0.50000047  0.50000245  0.00000860  1
  Cl  Cl36  1  0.47553915  0.29531272  0.91432870  1
  Cl  Cl37  1  0.18314415  0.01671130  0.17827926  1
  Cl  Cl38  1  0.67793942  1.00077235  0.31714331  1
  Cl  Cl39  1  0.97441996  0.20468640  0.58594375  1
  Cl  Cl40  1  0.32206394  -0.00076924  0.68286280  1
  Cl  Cl41  1  0.81686443  0.98329099  0.82173223  1
  Cl  Cl42  1  0.52446258  0.70469192  0.08568841  1
  Cl  Cl43  1  0.68314803  0.48316681  0.32179889  1
  Cl  Cl44  1  0.17785437  0.49938163  0.18282567  1
  Cl  Cl45  1  0.02557650  0.79531591  0.41406624  1
  Cl  Cl46  1  0.31685394  0.51683699  0.67821673  1
  Cl  Cl47  1  0.82214547  0.50062325  0.81719045  1
