# generated using pymatgen
data_SrH12PbC2(NCl3)2
_symmetry_space_group_name_H-M   'P 1'
_cell_length_a   8.14635103
_cell_length_b   11.33015867
_cell_length_c   7.50954381
_cell_angle_alpha   90.03509316
_cell_angle_beta   89.99486768
_cell_angle_gamma   89.99095671
_symmetry_Int_Tables_number   1
_chemical_formula_structural   SrH12PbC2(NCl3)2
_chemical_formula_sum   'Sr2 H24 Pb2 C4 N4 Cl12'
_cell_volume   693.12661962
_cell_formula_units_Z   2
loop_
 _symmetry_equiv_pos_site_id
 _symmetry_equiv_pos_as_xyz
  1  'x, y, z'
loop_
 _atom_site_type_symbol
 _atom_site_label
 _atom_site_symmetry_multiplicity
 _atom_site_fract_x
 _atom_site_fract_y
 _atom_site_fract_z
 _atom_site_occupancy
  C  C0  1  0.40454586  0.24954175  0.42692908  1
  C  C1  1  0.90441655  0.24971585  0.07301189  1
  C  C2  1  0.59545474  0.75046146  0.57308308  1
  C  C3  1  0.09558457  0.75028720  0.92700182  1
  N  N4  1  0.56675636  0.24986047  0.51643217  1
  N  N5  1  0.06661972  0.24989176  0.98346070  1
  N  N6  1  0.43324525  0.75014538  0.48357768  1
  N  N7  1  0.93338164  0.75011264  0.01655380  1
  H  H8  1  0.42380660  0.24958665  0.28265285  1
  H  H9  1  0.33790237  0.17021885  0.46674262  1
  H  H10  1  0.33772425  0.32889449  0.46649377  1
  H  H11  1  0.63297197  0.17530848  0.47819855  1
  H  H12  1  0.63248837  0.32454156  0.47790926  1
  H  H13  1  0.55343506  0.25003080  0.65468132  1
  H  H14  1  0.92368943  0.24952516  0.21728154  1
  H  H15  1  0.83802325  0.17024508  0.03323351  1
  H  H16  1  0.83733938  0.32892010  0.03345191  1
  H  H17  1  0.13269805  0.17532585  0.02180281  1
  H  H18  1  0.13250017  0.32455605  0.02183325  1
  H  H19  1  0.05328832  0.24981291  0.84521418  1
  H  H20  1  0.57619244  0.75041703  0.71735896  1
  H  H21  1  0.66227504  0.67110796  0.53351923  1
  H  H22  1  0.66210069  0.82978353  0.53327019  1
  H  H23  1  0.36703055  0.82469795  0.52181046  1
  H  H24  1  0.36751129  0.67546496  0.52209968  1
  H  H25  1  0.44656802  0.74997452  0.34532879  1
  H  H26  1  0.07631466  0.75047814  0.78273373  1
  H  H27  1  0.16197834  0.82975817  0.96678300  1
  H  H28  1  0.16266163  0.67108309  0.96656481  1
  H  H29  1  0.86730345  0.82467897  0.97821006  1
  H  H30  1  0.86750008  0.67544814  0.97817664  1
  H  H31  1  0.94671033  0.75018981  0.15479759  1
  Sr  Sr32  1  0.49999518  0.00000049  0.00000560  1
  Sr  Sr33  1  0.00000601  0.50000040  0.50000521  1
  Pb  Pb34  1  0.99999475  0.00000067  0.50000627  1
  Pb  Pb35  1  0.50000618  0.49999996  0.00000514  1
  Cl  Cl36  1  0.48099499  0.24964022  0.93189670  1
  Cl  Cl37  1  0.19145798  0.01917180  0.18062172  1
  Cl  Cl38  1  0.69098981  0.01915219  0.31899053  1
  Cl  Cl39  1  0.98100969  0.25034723  0.56800385  1
  Cl  Cl40  1  0.30899803  0.98085022  0.68102204  1
  Cl  Cl41  1  0.80853513  0.98083224  0.81939382  1
  Cl  Cl42  1  0.51900546  0.75036046  0.06811320  1
  Cl  Cl43  1  0.69128637  0.48081768  0.31962343  1
  Cl  Cl44  1  0.19075634  0.48073121  0.18070724  1
  Cl  Cl45  1  0.01898957  0.74965359  0.43200790  1
  Cl  Cl46  1  0.30872250  0.51918482  0.68039074  1
  Cl  Cl47  1  0.80925732  0.51927033  0.81930427  1
