# generated using pymatgen
data_SrHgH12C2(NCl3)2
_symmetry_space_group_name_H-M   'P 1'
_cell_length_a   7.75830004
_cell_length_b   11.08495378
_cell_length_c   7.46802739
_cell_angle_alpha   90.64601366
_cell_angle_beta   90.00182239
_cell_angle_gamma   90.00838021
_symmetry_Int_Tables_number   1
_chemical_formula_structural   SrHgH12C2(NCl3)2
_chemical_formula_sum   'Sr2 Hg2 H24 C4 N4 Cl12'
_cell_volume   642.21249241
_cell_formula_units_Z   2
loop_
 _symmetry_equiv_pos_site_id
 _symmetry_equiv_pos_as_xyz
  1  'x, y, z'
loop_
 _atom_site_type_symbol
 _atom_site_label
 _atom_site_symmetry_multiplicity
 _atom_site_fract_x
 _atom_site_fract_y
 _atom_site_fract_z
 _atom_site_occupancy
  C  C0  1  0.39295447  0.24955579  0.41121436  1
  C  C1  1  0.89398582  0.25063003  0.08976580  1
  C  C2  1  0.60704257  0.75044970  0.58879722  1
  C  C3  1  0.10601940  0.74937159  0.91024658  1
  N  N4  1  0.54929160  0.25047366  0.52442257  1
  N  N5  1  0.04970600  0.24952726  0.97567584  1
  N  N6  1  0.45070465  0.74953223  0.47559012  1
  N  N7  1  0.95030039  0.75047082  0.02433834  1
  H  H8  1  0.43186343  0.25003039  0.27050911  1
  H  H9  1  0.31704465  0.16936541  0.44036570  1
  H  H10  1  0.31956560  0.33119052  0.44083030  1
  H  H11  1  0.62377648  0.17454952  0.49721871  1
  H  H12  1  0.62209783  0.32627118  0.49506977  1
  H  H13  1  0.51928444  0.25257301  0.66099201  1
  H  H14  1  0.93371803  0.25017804  0.23023561  1
  H  H15  1  0.82026065  0.16901732  0.06076362  1
  H  H16  1  0.81806011  0.33085629  0.06102633  1
  H  H17  1  0.12249668  0.17370703  0.00466294  1
  H  H18  1  0.12443883  0.32542613  0.00244313  1
  H  H19  1  0.01899503  0.24744123  0.83925285  1
  H  H20  1  0.56813383  0.74997772  0.72950286  1
  H  H21  1  0.68042917  0.66881361  0.55918398  1
  H  H22  1  0.68295416  0.83063864  0.55964341  1
  H  H23  1  0.37622068  0.82545661  0.50279371  1
  H  H24  1  0.37789821  0.67373495  0.50494267  1
  H  H25  1  0.48071205  0.74743276  0.33902020  1
  H  H26  1  0.06628588  0.74982550  0.76977737  1
  H  H27  1  0.17974406  0.83098408  0.93925160  1
  H  H28  1  0.18194618  0.66914513  0.93898205  1
  H  H29  1  0.87750658  0.82629002  0.99535322  1
  H  H30  1  0.87556976  0.67457101  0.99757005  1
  H  H31  1  0.98101212  0.75255669  0.16076098  1
  Sr  Sr32  1  0.50000263  0.00000331  0.00000750  1
  Sr  Sr33  1  0.99999785  0.50000141  0.50000214  1
  Hg  Hg34  1  0.00000096  0.00000210  0.50000837  1
  Hg  Hg35  1  0.49999904  0.50000428  0.00000184  1
  Cl  Cl36  1  0.47103449  0.25430181  0.93849794  1
  Cl  Cl37  1  0.17538057  0.01331883  0.18697064  1
  Cl  Cl38  1  0.69799724  0.01039696  0.32902176  1
  Cl  Cl39  1  0.97040602  0.24570832  0.56202312  1
  Cl  Cl40  1  0.30200464  0.98960919  0.67099518  1
  Cl  Cl41  1  0.82462473  0.98668132  0.81304666  1
  Cl  Cl42  1  0.52896959  0.74570427  0.06151496  1
  Cl  Cl43  1  0.67535172  0.48659621  0.31304684  1
  Cl  Cl44  1  0.19805979  0.48973747  0.17097480  1
  Cl  Cl45  1  0.02959177  0.75429518  0.43799215  1
  Cl  Cl46  1  0.32464502  0.51340756  0.68695866  1
  Cl  Cl47  1  0.80193835  0.51026622  0.82903099  1
