# generated using pymatgen
data_SrH12PtC2(NCl3)2
_symmetry_space_group_name_H-M   'P 1'
_cell_length_a   7.34048027
_cell_length_b   12.45887945
_cell_length_c   7.06413068
_cell_angle_alpha   87.23805883
_cell_angle_beta   89.99180773
_cell_angle_gamma   90.02762639
_symmetry_Int_Tables_number   1
_chemical_formula_structural   SrH12PtC2(NCl3)2
_chemical_formula_sum   'Sr2 H24 Pt2 C4 N4 Cl12'
_cell_volume   645.29357833
_cell_formula_units_Z   2
loop_
 _symmetry_equiv_pos_site_id
 _symmetry_equiv_pos_as_xyz
  1  'x, y, z'
loop_
 _atom_site_type_symbol
 _atom_site_label
 _atom_site_symmetry_multiplicity
 _atom_site_fract_x
 _atom_site_fract_y
 _atom_site_fract_z
 _atom_site_occupancy
  C  C0  1  0.38891792  0.24974282  0.40692181  1
  C  C1  1  0.88988593  0.25041329  0.09373653  1
  C  C2  1  0.61107990  0.75026134  0.59309008  1
  C  C3  1  0.11011828  0.74959118  0.90627637  1
  N  N4  1  0.56387700  0.24659754  0.50981261  1
  N  N5  1  0.06444161  0.25330534  0.99005488  1
  N  N6  1  0.43612119  0.75340795  0.49019869  1
  N  N7  1  0.93556205  0.74669427  0.00995727  1
  H  H8  1  0.41656859  0.25357107  0.25458354  1
  H  H9  1  0.30937877  0.17814105  0.44844898  1
  H  H10  1  0.31521818  0.32138283  0.44570530  1
  H  H11  1  0.64108456  0.18014625  0.47732376  1
  H  H12  1  0.64107788  0.31425796  0.47720935  1
  H  H13  1  0.54202713  0.24219045  0.65760825  1
  H  H14  1  0.91809124  0.24660958  0.24594672  1
  H  H15  1  0.81563789  0.17882517  0.05539696  1
  H  H16  1  0.81054323  0.32207561  0.05246112  1
  H  H17  1  0.14144946  0.18561536  0.02241103  1
  H  H18  1  0.14204869  0.31972673  0.02216320  1
  H  H19  1  0.04200508  0.25772218  0.84235872  1
  H  H20  1  0.58342894  0.74643443  0.74542835  1
  H  H21  1  0.68477832  0.67862076  0.55430838  1
  H  H22  1  0.69062057  0.82186259  0.55156181  1
  H  H23  1  0.35891512  0.81985930  0.52268676  1
  H  H24  1  0.35891836  0.68574754  0.52280227  1
  H  H25  1  0.45797183  0.75781395  0.34240324  1
  H  H26  1  0.08191328  0.75339731  0.75406604  1
  H  H27  1  0.18436164  0.82118050  0.94462032  1
  H  H28  1  0.18946502  0.67793024  0.94754777  1
  H  H29  1  0.85854903  0.81438150  0.97760413  1
  H  H30  1  0.85795990  0.68027047  0.97784646  1
  H  H31  1  0.95799819  0.74227614  0.15765375  1
  Sr  Sr32  1  0.50000287  0.00000176  0.00000682  1
  Sr  Sr33  1  0.99999936  0.50000123  0.50000543  1
  Pt  Pt34  1  0.00000183  0.00000178  0.50000706  1
  Pt  Pt35  1  0.49999888  0.50000154  0.00000544  1
  Cl  Cl36  1  0.46881694  0.21819750  0.92671467  1
  Cl  Cl37  1  0.14312442  0.00635995  0.20480682  1
  Cl  Cl38  1  0.71524748  0.01961699  0.35686282  1
  Cl  Cl39  1  0.96793005  0.28186010  0.57379377  1
  Cl  Cl40  1  0.28475614  0.98038735  0.64315163  1
  Cl  Cl41  1  0.85687980  0.99364280  0.79520741  1
  Cl  Cl42  1  0.53118768  0.78180591  0.07329821  1
  Cl  Cl43  1  0.64312247  0.49358240  0.29516762  1
  Cl  Cl44  1  0.21520941  0.48036864  0.14318311  1
  Cl  Cl45  1  0.03206776  0.71814268  0.42622095  1
  Cl  Cl46  1  0.35687576  0.50642095  0.70484319  1
  Cl  Cl47  1  0.78478810  0.51963402  0.85682719  1
