# generated using pymatgen
data_SrH12OsC2(NCl3)2
_symmetry_space_group_name_H-M   'P 1'
_cell_length_a   7.58045180
_cell_length_b   10.51895477
_cell_length_c   7.28141785
_cell_angle_alpha   92.18031533
_cell_angle_beta   89.99615262
_cell_angle_gamma   89.99980957
_symmetry_Int_Tables_number   1
_chemical_formula_structural   SrH12OsC2(NCl3)2
_chemical_formula_sum   'Sr2 H24 Os2 C4 N4 Cl12'
_cell_volume   580.18848921
_cell_formula_units_Z   2
loop_
 _symmetry_equiv_pos_site_id
 _symmetry_equiv_pos_as_xyz
  1  'x, y, z'
loop_
 _atom_site_type_symbol
 _atom_site_label
 _atom_site_symmetry_multiplicity
 _atom_site_fract_x
 _atom_site_fract_y
 _atom_site_fract_z
 _atom_site_occupancy
  C  C0  1  0.40392854  0.24919720  0.41486131  1
  C  C1  1  0.90467024  0.25095196  0.08551840  1
  C  C2  1  0.59607019  0.75080702  0.58514981  1
  C  C3  1  0.09533191  0.74905223  0.91449392  1
  N  N4  1  0.56430996  0.25206796  0.52917022  1
  N  N5  1  0.06460371  0.24792638  0.97052262  1
  N  N6  1  0.43568893  0.74793721  0.47084061  1
  N  N7  1  0.93539945  0.75207355  0.02949124  1
  H  H8  1  0.44275875  0.24789865  0.27040779  1
  H  H9  1  0.32514590  0.16628752  0.44605884  1
  H  H10  1  0.33067926  0.33647078  0.44534694  1
  H  H11  1  0.64137264  0.17214313  0.50097208  1
  H  H12  1  0.63746060  0.33146934  0.49863228  1
  H  H13  1  0.53461587  0.25750008  0.66955544  1
  H  H14  1  0.94407823  0.25231832  0.22978977  1
  H  H15  1  0.83117937  0.16371922  0.05551716  1
  H  H16  1  0.82585565  0.33390766  0.05455620  1
  H  H17  1  0.13773648  0.16844133  0.00074200  1
  H  H18  1  0.14188646  0.32776815  0.99840948  1
  H  H19  1  0.03439351  0.24250827  0.83026500  1
  H  H20  1  0.55723993  0.75210679  0.72960329  1
  H  H21  1  0.66931818  0.66353271  0.55466502  1
  H  H22  1  0.67485412  0.83371591  0.55395123  1
  H  H23  1  0.35862762  0.82786286  0.49903791  1
  H  H24  1  0.36253660  0.66853674  0.50137890  1
  H  H25  1  0.46538329  0.74250419  0.33045555  1
  H  H26  1  0.05592240  0.74768758  0.77022297  1
  H  H27  1  0.16882012  0.83628594  0.94449714  1
  H  H28  1  0.17414946  0.66609737  0.94545238  1
  H  H29  1  0.86226289  0.83155696  0.99927457  1
  H  H30  1  0.85811971  0.67223014  0.00160334  1
  H  H31  1  0.96561073  0.75749094  0.16974876  1
  Sr  Sr32  1  0.50000106  0.00000145  0.00000593  1
  Sr  Sr33  1  0.00000129  0.50000130  0.50000724  1
  Os  Os34  1  0.00000032  0.00000138  0.50000660  1
  Os  Os35  1  0.50000114  0.50000161  0.00000662  1
  Cl  Cl36  1  0.48398705  0.27161367  0.94993485  1
  Cl  Cl37  1  0.17399928  0.00800669  0.21807222  1
  Cl  Cl38  1  0.72909579  0.00164498  0.31987820  1
  Cl  Cl39  1  0.98345353  0.22836413  0.55019858  1
  Cl  Cl40  1  0.27090510  0.99835886  0.68013469  1
  Cl  Cl41  1  0.82600226  0.99199533  0.78194131  1
  Cl  Cl42  1  0.51601586  0.72838949  0.05007758  1
  Cl  Cl43  1  0.67396027  0.49198469  0.28190220  1
  Cl  Cl44  1  0.22903502  0.49835274  0.18007082  1
  Cl  Cl45  1  0.01654605  0.77163849  0.44981503  1
  Cl  Cl46  1  0.32604257  0.50801855  0.71811093  1
  Cl  Cl47  1  0.77096647  0.50165082  0.81994162  1
