# generated using pymatgen
data_TaH12C2(I2N)3
_symmetry_space_group_name_H-M   'P 1'
_cell_length_a   10.15139905
_cell_length_b   10.17618135
_cell_length_c   8.25980486
_cell_angle_alpha   108.99038352
_cell_angle_beta   89.87244685
_cell_angle_gamma   90.04002840
_symmetry_Int_Tables_number   1
_chemical_formula_structural   TaH12C2(I2N)3
_chemical_formula_sum   'Ta2 H24 C4 I12 N6'
_cell_volume   806.81619226
_cell_formula_units_Z   2
loop_
 _symmetry_equiv_pos_site_id
 _symmetry_equiv_pos_as_xyz
  1  'x, y, z'
loop_
 _atom_site_type_symbol
 _atom_site_label
 _atom_site_symmetry_multiplicity
 _atom_site_fract_x
 _atom_site_fract_y
 _atom_site_fract_z
 _atom_site_occupancy
  C  C0  1  0.54413522  0.34489094  0.54532826  1
  C  C1  1  0.97005308  0.23137107  0.93411020  1
  C  C2  1  0.53160107  0.73474355  0.43095190  1
  C  C3  1  0.95412293  0.84333120  0.04678213  1
  N  N4  1  0.65636334  0.30131025  0.63163851  1
  N  N5  1  0.06377219  0.13174898  0.81811384  1
  N  N6  1  0.43806881  0.63343958  0.31740481  1
  N  N7  1  0.84215230  0.79973665  0.13414257  1
  H  H8  1  0.58186038  0.36662047  0.43204767  1
  H  H9  1  0.47098319  0.26145806  0.50597203  1
  H  H10  1  0.49909718  0.43820309  0.63512516  1
  H  H11  1  0.68424036  0.19778295  0.57451460  1
  H  H12  1  0.73806569  0.36450752  0.63101156  1
  H  H13  1  0.63774459  0.31727948  0.76119729  1
  H  H14  1  0.02154143  0.29427914  0.04951521  1
  H  H15  1  0.88967401  0.17255026  0.96679981  1
  H  H16  1  0.93032112  0.29866747  0.86620521  1
  H  H17  1  0.11500976  0.07307657  0.87881005  1
  H  H18  1  0.13298635  0.18322692  0.76865456  1
  H  H19  1  0.00747939  0.06343871  0.71684617  1
  H  H20  1  0.48055761  0.79759688  0.54706021  1
  H  H21  1  0.61332015  0.67727587  0.46270040  1
  H  H22  1  0.56922213  0.80201900  0.36147965  1
  H  H23  1  0.36801649  0.68339899  0.26750689  1
  H  H24  1  0.38775957  0.57562167  0.38024768  1
  H  H25  1  0.49433231  0.56441913  0.21632372  1
  H  H26  1  0.91598392  0.86601549  0.93452945  1
  H  H27  1  -0.00012993  0.93607707  0.13653531  1
  H  H28  1  0.02679875  0.75950845  0.00564348  1
  H  H29  1  0.76039318  0.86281579  0.13396076  1
  H  H30  1  0.81430004  0.69607247  0.07765155  1
  H  H31  1  0.86107232  0.81613248  0.26365101  1
  N  N32  1  0.24944974  0.88319274  0.88141161  1
  N  N33  1  0.25017324  0.38254787  0.38076202  1
  Ta  Ta34  1  0.38724506  0.96318985  0.01682267  1
  Ta  Ta35  1  0.11206014  0.46262849  0.51617316  1
  I  I36  1  0.32481749  0.27864117  0.14235568  1
  I  I37  1  0.28807726  0.96844052  0.32252650  1
  I  I38  1  0.64243718  0.07545772  0.15988169  1
  I  I39  1  0.97623761  0.22327261  0.39734098  1
  I  I40  1  0.43642714  0.10556330  0.78143000  1
  I  I41  1  0.80695398  0.95931087  0.58479591  1
  I  I42  1  0.52258268  0.72321481  0.89694340  1
  I  I43  1  0.69376795  0.45785885  0.08325634  1
  I  I44  1  0.06573691  0.60617157  0.28147950  1
  I  I45  1  0.17617110  0.77833909  0.64275943  1
  I  I46  1  0.21006146  0.46694554  0.82163300  1
  I  I47  1  0.85692586  0.57668717  0.65826309  1
