# generated using pymatgen
data_BaSrH12C2(NCl3)2
_symmetry_space_group_name_H-M   'P 1'
_cell_length_a   8.25964553
_cell_length_b   11.57626595
_cell_length_c   7.62719870
_cell_angle_alpha   89.43229559
_cell_angle_beta   90.00005748
_cell_angle_gamma   89.99366160
_symmetry_Int_Tables_number   1
_chemical_formula_structural   BaSrH12C2(NCl3)2
_chemical_formula_sum   'Ba2 Sr2 H24 C4 N4 Cl12'
_cell_volume   729.24530858
_cell_formula_units_Z   2
loop_
 _symmetry_equiv_pos_site_id
 _symmetry_equiv_pos_as_xyz
  1  'x, y, z'
loop_
 _atom_site_type_symbol
 _atom_site_label
 _atom_site_symmetry_multiplicity
 _atom_site_fract_x
 _atom_site_fract_y
 _atom_site_fract_z
 _atom_site_occupancy
  C  C0  1  0.39295489  0.25041283  0.41715272  1
  C  C1  1  0.89304812  0.24959047  0.08285336  1
  C  C2  1  0.60703954  0.74959577  0.58284581  1
  C  C3  1  0.10695168  0.75040908  0.91715660  1
  N  N4  1  0.54578578  0.24946405  0.51888201  1
  N  N5  1  0.04587435  0.25053331  0.98111429  1
  N  N6  1  0.45420906  0.75053887  0.48111531  1
  N  N7  1  0.95413419  0.74946495  0.01891078  1
  H  H8  1  0.42222517  0.25008247  0.27705959  1
  H  H9  1  0.32465624  0.17244958  0.45062240  1
  H  H10  1  0.32432007  0.32802232  0.44957822  1
  H  H11  1  0.61238052  0.17636227  0.48527845  1
  H  H12  1  0.61379064  0.32283434  0.48753783  1
  H  H13  1  0.52309696  0.24762236  0.65381266  1
  H  H14  1  0.92233097  0.24994108  0.22294444  1
  H  H15  1  0.82441455  0.17199995  0.05044811  1
  H  H16  1  0.82474846  0.32757374  0.04937424  1
  H  H17  1  0.11387907  0.17714630  0.01246553  1
  H  H18  1  0.11246937  0.32361750  0.01470059  1
  H  H19  1  0.02317632  0.25236289  0.84618408  1
  H  H20  1  0.57776792  0.74992612  0.72293838  1
  H  H21  1  0.67567808  0.67198759  0.55042216  1
  H  H22  1  0.67533403  0.82756042  0.54937339  1
  H  H23  1  0.38761223  0.82364087  0.51471251  1
  H  H24  1  0.38620566  0.67716948  0.51246575  1
  H  H25  1  0.47689856  0.75237745  0.34618450  1
  H  H26  1  0.07765625  0.75007217  0.77706849  1
  H  H27  1  0.17559595  0.82799345  0.94956913  1
  H  H28  1  0.17524713  0.67241952  0.95061170  1
  H  H29  1  0.88612563  0.82285047  0.98756437  1
  H  H30  1  0.88753833  0.67637952  0.98533070  1
  H  H31  1  0.97684157  0.74763579  0.15383911  1
  Sr  Sr32  1  0.50000433  0.00000227  0.99999444  1
  Sr  Sr33  1  0.00000244  0.50000503  0.50002874  1
  Ba  Ba34  1  0.00000091  0.00000514  0.50000061  1
  Ba  Ba35  1  0.49999940  0.50000012  0.00002678  1
  Cl  Cl36  1  0.46907167  0.24321997  0.92666048  1
  Cl  Cl37  1  0.18727318  0.02222180  0.15911397  1
  Cl  Cl38  1  0.67057825  0.02545035  0.32614618  1
  Cl  Cl39  1  0.96907501  0.25678614  0.57336040  1
  Cl  Cl40  1  0.32942722  0.97455803  0.67384609  1
  Cl  Cl41  1  0.81274019  0.97777545  0.84089089  1
  Cl  Cl42  1  0.53093108  0.75678561  0.07334115  1
  Cl  Cl43  1  0.68726300  0.47776430  0.34092028  1
  Cl  Cl44  1  0.17057545  0.47456317  0.17386980  1
  Cl  Cl45  1  0.03092951  0.74322068  0.42666517  1
  Cl  Cl46  1  0.31274202  0.52224760  0.65913153  1
  Cl  Cl47  1  0.82942282  0.52543566  0.82618287  1
