# generated using pymatgen
data_SrSnH12C2(NCl3)2
_symmetry_space_group_name_H-M   'P 1'
_cell_length_a   8.19683561
_cell_length_b   11.26475338
_cell_length_c   7.45114389
_cell_angle_alpha   90.10528468
_cell_angle_beta   89.89438560
_cell_angle_gamma   89.97414801
_symmetry_Int_Tables_number   1
_chemical_formula_structural   SrSnH12C2(NCl3)2
_chemical_formula_sum   'Sr2 Sn2 H24 C4 N4 Cl12'
_cell_volume   688.00144005
_cell_formula_units_Z   2
loop_
 _symmetry_equiv_pos_site_id
 _symmetry_equiv_pos_as_xyz
  1  'x, y, z'
loop_
 _atom_site_type_symbol
 _atom_site_label
 _atom_site_symmetry_multiplicity
 _atom_site_fract_x
 _atom_site_fract_y
 _atom_site_fract_z
 _atom_site_occupancy
  C  C0  1  0.41412395  0.24908218  0.44210668  1
  C  C1  1  0.91471173  0.25034795  0.05832238  1
  C  C2  1  0.58545379  0.74969822  0.55863661  1
  C  C3  1  0.08611342  0.75069911  0.94169728  1
  N  N4  1  0.58023445  0.24897259  0.52081980  1
  N  N5  1  0.08071684  0.25033280  0.97862550  1
  N  N6  1  0.41942516  0.74966600  0.47973637  1
  N  N7  1  0.91990823  0.75114094  0.02088040  1
  H  H8  1  0.42522562  0.24963892  0.29570447  1
  H  H9  1  0.35007757  0.16931039  0.48647755  1
  H  H10  1  0.35038384  0.32897181  0.48741793  1
  H  H11  1  0.64473479  0.17447592  0.47737825  1
  H  H12  1  0.64292295  0.32420473  0.47804333  1
  H  H13  1  0.57406492  0.24891057  0.66065020  1
  H  H14  1  0.92596645  0.24984735  0.20467377  1
  H  H15  1  0.85106581  0.17042719  0.01365548  1
  H  H16  1  0.85026962  0.33003583  0.01423525  1
  H  H17  1  0.14460857  0.17581157  0.02216231  1
  H  H18  1  0.14394497  0.32562228  0.02090521  1
  H  H19  1  0.07442712  0.24956360  0.83889529  1
  H  H20  1  0.57420796  0.74967711  0.70502225  1
  H  H21  1  0.64900857  0.66963831  0.51398671  1
  H  H22  1  0.64993756  0.82922270  0.51383382  1
  H  H23  1  0.35634788  0.82502291  0.52236705  1
  H  H24  1  0.35544417  0.67515344  0.52348507  1
  H  H25  1  0.42574277  0.74887935  0.33996441  1
  H  H26  1  0.07528746  0.75074724  0.79531463  1
  H  H27  1  0.15002791  0.83054914  0.98634969  1
  H  H28  1  0.14992781  0.67088916  0.98625320  1
  H  H29  1  0.85728898  0.82640057  0.97798787  1
  H  H30  1  0.85544520  0.67665055  0.97788499  1
  H  H31  1  0.92591840  0.75131171  0.16070181  1
  Sr  Sr32  1  0.50373185  0.99975021  0.00228684  1
  Sr  Sr33  1  0.99440775  0.49935923  0.49766053  1
  Sn  Sn34  1  0.00423849  0.99950683  0.50132799  1
  Sn  Sn35  1  0.49641738  0.49997888  0.99767716  1
  Cl  Cl36  1  0.49032574  0.25135868  0.93741105  1
  Cl  Cl37  1  0.20088311  0.02187251  0.19179622  1
  Cl  Cl38  1  0.70927300  0.02010029  0.31203816  1
  Cl  Cl39  1  0.98722230  0.24789530  0.56269015  1
  Cl  Cl40  1  0.30366482  0.97954231  0.68878694  1
  Cl  Cl41  1  0.80426704  0.97967138  0.80775326  1
  Cl  Cl42  1  0.51165906  0.74810040  0.06328630  1
  Cl  Cl43  1  0.69157962  0.47921066  0.30716561  1
  Cl  Cl44  1  0.19897170  0.47928281  0.18686497  1
  Cl  Cl45  1  0.01016406  0.75122772  0.43649348  1
  Cl  Cl46  1  0.29528617  0.52102332  0.69037007  1
  Cl  Cl47  1  0.79496716  0.52129561  0.81251230  1
