# generated using pymatgen
data_SrCdH12C2(NCl3)2
_symmetry_space_group_name_H-M   'P 1'
_cell_length_a   7.80028143
_cell_length_b   10.94168259
_cell_length_c   7.43531897
_cell_angle_alpha   91.28133229
_cell_angle_beta   89.99487157
_cell_angle_gamma   89.99996821
_symmetry_Int_Tables_number   1
_chemical_formula_structural   SrCdH12C2(NCl3)2
_chemical_formula_sum   'Sr2 Cd2 H24 C4 N4 Cl12'
_cell_volume   634.43243353
_cell_formula_units_Z   2
loop_
 _symmetry_equiv_pos_site_id
 _symmetry_equiv_pos_as_xyz
  1  'x, y, z'
loop_
 _atom_site_type_symbol
 _atom_site_label
 _atom_site_symmetry_multiplicity
 _atom_site_fract_x
 _atom_site_fract_y
 _atom_site_fract_z
 _atom_site_occupancy
  C  C0  1  0.40116123  0.24964982  0.41484011  1
  C  C1  1  0.90182818  0.25043454  0.08570777  1
  C  C2  1  0.59883584  0.75035497  0.58517178  1
  C  C3  1  0.09817523  0.74956925  0.91430443  1
  N  N4  1  0.55958208  0.25177958  0.52403840  1
  N  N5  1  0.05977824  0.24818497  0.97574538  1
  N  N6  1  0.44041701  0.74822666  0.47597025  1
  N  N7  1  0.94022479  0.75181447  0.02426622  1
  H  H8  1  0.43651681  0.24897541  0.27250238  1
  H  H9  1  0.32683787  0.16859732  0.44649658  1
  H  H10  1  0.32881893  0.33262042  0.44631082  1
  H  H11  1  0.63306534  0.17456600  0.49514601  1
  H  H12  1  0.63087703  0.32830751  0.49179438  1
  H  H13  1  0.53283312  0.25543995  0.66180360  1
  H  H14  1  0.93774424  0.25114227  0.22784165  1
  H  H15  1  0.82924422  0.16749506  0.05465478  1
  H  H16  1  0.82744034  0.33153267  0.05431352  1
  H  H17  1  0.13110900  0.17158957  0.00772154  1
  H  H18  1  0.13349179  0.32534012  0.00438631  1
  H  H19  1  0.03255198  0.24454809  0.83815004  1
  H  H20  1  0.56348039  0.75103077  0.72750804  1
  H  H21  1  0.67117660  0.66738287  0.55370160  1
  H  H22  1  0.67316231  0.83140623  0.55351314  1
  H  H23  1  0.36693425  0.82544176  0.50486317  1
  H  H24  1  0.36911873  0.67169993  0.50821573  1
  H  H25  1  0.46716558  0.74456543  0.33820741  1
  H  H26  1  0.06225830  0.74886374  0.77217009  1
  H  H27  1  0.17075649  0.83250916  0.94535974  1
  H  H28  1  0.17256529  0.66847154  0.94569461  1
  H  H29  1  0.86889138  0.82840881  0.99229207  1
  H  H30  1  0.86651472  0.67465834  0.99562462  1
  H  H31  1  0.96745161  0.75545122  0.16186242  1
  Sr  Sr32  1  0.50000081  0.99999990  0.00000559  1
  Sr  Sr33  1  0.00000244  0.50000216  0.50000996  1
  Cd  Cd34  1  0.99999919  0.00000218  0.50000584  1
  Cd  Cd35  1  0.50000143  0.49999953  0.00000960  1
  Cl  Cl36  1  0.47894143  0.25881263  0.94150317  1
  Cl  Cl37  1  0.18013244  0.01296009  0.19486263  1
  Cl  Cl38  1  0.70619578  0.00807480  0.32226747  1
  Cl  Cl39  1  0.97846012  0.24118731  0.55870630  1
  Cl  Cl40  1  0.29380239  0.99192989  0.67774608  1
  Cl  Cl41  1  0.81986992  0.98704144  0.80515152  1
  Cl  Cl42  1  0.52106252  0.74118779  0.05850999  1
  Cl  Cl43  1  0.68011656  0.48701833  0.30514962  1
  Cl  Cl44  1  0.20616193  0.49190830  0.17765729  1
  Cl  Cl45  1  0.02153858  0.75881639  0.44130682  1
  Cl  Cl46  1  0.31988933  0.51298460  0.69486724  1
  Cl  Cl47  1  0.79383996  0.50809445  0.82235888  1
