# generated using pymatgen
data_SrH12PdC2(NCl3)2
_symmetry_space_group_name_H-M   'P 1'
_cell_length_a   7.41570076
_cell_length_b   12.18276681
_cell_length_c   7.08584332
_cell_angle_alpha   88.37258682
_cell_angle_beta   89.99112459
_cell_angle_gamma   90.01971922
_symmetry_Int_Tables_number   1
_chemical_formula_structural   SrH12PdC2(NCl3)2
_chemical_formula_sum   'Sr2 H24 Pd2 C4 N4 Cl12'
_cell_volume   639.90341802
_cell_formula_units_Z   2
loop_
 _symmetry_equiv_pos_site_id
 _symmetry_equiv_pos_as_xyz
  1  'x, y, z'
loop_
 _atom_site_type_symbol
 _atom_site_label
 _atom_site_symmetry_multiplicity
 _atom_site_fract_x
 _atom_site_fract_y
 _atom_site_fract_z
 _atom_site_occupancy
  C  C0  1  0.39352736  0.24941400  0.41110383  1
  C  C1  1  0.89436095  0.25071692  0.08944487  1
  C  C2  1  0.60647032  0.75059019  0.58890810  1
  C  C3  1  0.10564324  0.74928738  0.91056777  1
  N  N4  1  0.56598194  0.24838358  0.51491476  1
  N  N5  1  0.06643134  0.25158444  0.98489929  1
  N  N6  1  0.43401590  0.75162213  0.48509670  1
  N  N7  1  0.93357277  0.74841444  0.01511337  1
  H  H8  1  0.42190325  0.25203457  0.25959038  1
  H  H9  1  0.31613483  0.17605628  0.45137116  1
  H  H10  1  0.31903038  0.32266371  0.44920779  1
  H  H11  1  0.64388562  0.18073195  0.48237898  1
  H  H12  1  0.64076834  0.31781320  0.48232489  1
  H  H13  1  0.54363307  0.24530590  0.66198440  1
  H  H14  1  0.92327042  0.24810396  0.24083463  1
  H  H15  1  0.81944372  0.17751756  0.05174286  1
  H  H16  1  0.81707171  0.32412969  0.04946323  1
  H  H17  1  0.14112313  0.18212392  0.01722361  1
  H  H18  1  0.14462934  0.31920018  0.01710666  1
  H  H19  1  0.04355095  0.25467486  0.83792119  1
  H  H20  1  0.57809428  0.74797030  0.74042148  1
  H  H21  1  0.68096538  0.67733955  0.55080496  1
  H  H22  1  0.68386487  0.82394702  0.54864037  1
  H  H23  1  0.35611415  0.81927469  0.51763228  1
  H  H24  1  0.35922720  0.68219345  0.51768637  1
  H  H25  1  0.45636551  0.75469940  0.33802728  1
  H  H26  1  0.07673360  0.75190205  0.75917803  1
  H  H27  1  0.18055621  0.82248768  0.94827327  1
  H  H28  1  0.18293649  0.67587559  0.95054584  1
  H  H29  1  0.85887549  0.81787305  0.98279167  1
  H  H30  1  0.85537937  0.68079695  0.98290402  1
  H  H31  1  0.95645297  0.74532348  0.16209160  1
  Sr  Sr32  1  0.50000236  0.00000184  0.00000657  1
  Sr  Sr33  1  0.00000007  0.50000109  0.50000552  1
  Pd  Pd34  1  0.00000115  0.00000189  0.50000689  1
  Pd  Pd35  1  0.49999969  0.50000151  0.00000532  1
  Cl  Cl36  1  0.47272736  0.22401222  0.93122561  1
  Cl  Cl37  1  0.14890500  0.00738737  0.20678176  1
  Cl  Cl38  1  0.71864391  0.01790291  0.35037573  1
  Cl  Cl39  1  0.97197003  0.27604357  0.56914976  1
  Cl  Cl40  1  0.28135806  0.98210198  0.64963862  1
  Cl  Cl41  1  0.85109806  0.99261496  0.79323209  1
  Cl  Cl42  1  0.52727729  0.77599154  0.06878750  1
  Cl  Cl43  1  0.64889698  0.49259950  0.29319807  1
  Cl  Cl44  1  0.21861529  0.48208880  0.14964648  1
  Cl  Cl45  1  0.02802791  0.72395902  0.43086509  1
  Cl  Cl46  1  0.35110287  0.50740400  0.70681243  1
  Cl  Cl47  1  0.78138364  0.51791402  0.85036352  1
