# generated using pymatgen
data_SrH12RuC2(NCl3)2
_symmetry_space_group_name_H-M   'P 1'
_cell_length_a   7.58509452
_cell_length_b   10.55243052
_cell_length_c   7.29237207
_cell_angle_alpha   92.38678654
_cell_angle_beta   89.99734663
_cell_angle_gamma   89.99585151
_symmetry_Int_Tables_number   1
_chemical_formula_structural   SrH12RuC2(NCl3)2
_chemical_formula_sum   'Sr2 H24 Ru2 C4 N4 Cl12'
_cell_volume   583.18371075
_cell_formula_units_Z   2
loop_
 _symmetry_equiv_pos_site_id
 _symmetry_equiv_pos_as_xyz
  1  'x, y, z'
loop_
 _atom_site_type_symbol
 _atom_site_label
 _atom_site_symmetry_multiplicity
 _atom_site_fract_x
 _atom_site_fract_y
 _atom_site_fract_z
 _atom_site_occupancy
  C  C0  1  0.40194107  0.24910211  0.41446391  1
  C  C1  1  0.90272804  0.25105609  0.08603632  1
  C  C2  1  0.59805746  0.75090230  0.58554732  1
  C  C3  1  0.09727471  0.74894759  0.91397605  1
  N  N4  1  0.56220487  0.25230625  0.52862632  1
  N  N5  1  0.06251601  0.24768541  0.97115292  1
  N  N6  1  0.43779364  0.74769893  0.47138493  1
  N  N7  1  0.93748777  0.75231410  0.02886104  1
  H  H8  1  0.44063357  0.24790839  0.27023590  1
  H  H9  1  0.32386089  0.16614646  0.44505263  1
  H  H10  1  0.32816480  0.33581132  0.44547186  1
  H  H11  1  0.63933153  0.17264306  0.49994038  1
  H  H12  1  0.63509993  0.33157369  0.49857518  1
  H  H13  1  0.53257357  0.25765999  0.66876793  1
  H  H14  1  0.94204892  0.25228951  0.23007619  1
  H  H15  1  0.82870794  0.16438877  0.05552777  1
  H  H16  1  0.82460537  0.33405911  0.05573258  1
  H  H17  1  0.13540271  0.16834301  0.00085855  1
  H  H18  1  0.13985409  0.32727114  0.99951641  1
  H  H19  1  0.03232785  0.24235986  0.83113892  1
  H  H20  1  0.55936496  0.75209747  0.72977540  1
  H  H21  1  0.67183225  0.66419224  0.55454060  1
  H  H22  1  0.67613896  0.83385705  0.55495731  1
  H  H23  1  0.36066804  0.82736272  0.50007035  1
  H  H24  1  0.36489737  0.66843219  0.50143643  1
  H  H25  1  0.46742500  0.74234457  0.33124332  1
  H  H26  1  0.05795239  0.74771574  0.76993671  1
  H  H27  1  0.17129265  0.83561557  0.94448664  1
  H  H28  1  0.17539998  0.66594512  0.94427620  1
  H  H29  1  0.86459733  0.83165512  0.99915781  1
  H  H30  1  0.86015255  0.67272697  0.00049660  1
  H  H31  1  0.96767693  0.75763923  0.16887482  1
  Sr  Sr32  1  0.50000133  0.00000177  0.00000624  1
  Sr  Sr33  1  0.00000060  0.50000151  0.50000615  1
  Ru  Ru34  1  0.00000036  0.00000163  0.50000686  1
  Ru  Ru35  1  0.50000073  0.50000188  0.00000582  1
  Cl  Cl36  1  0.48226276  0.27101357  0.94939218  1
  Cl  Cl37  1  0.17248344  0.00856904  0.21537483  1
  Cl  Cl38  1  0.72634764  0.00165944  0.32165812  1
  Cl  Cl39  1  0.98170631  0.22896399  0.55082946  1
  Cl  Cl40  1  0.27365327  0.99834493  0.67835560  1
  Cl  Cl41  1  0.82751851  0.99143295  0.78463919  1
  Cl  Cl42  1  0.51773995  0.72899016  0.05061983  1
  Cl  Cl43  1  0.67242209  0.49141600  0.28460923  1
  Cl  Cl44  1  0.22629216  0.49836137  0.17828036  1
  Cl  Cl45  1  0.01829305  0.77103911  0.44918465  1
  Cl  Cl46  1  0.32757976  0.50858756  0.71540205  1
  Cl  Cl47  1  0.77370861  0.50164225  0.82173076  1
