# generated using pymatgen
data_YBiH12C2(NCl3)2
_symmetry_space_group_name_H-M   'P 1'
_cell_length_a   7.43255040
_cell_length_b   12.90260551
_cell_length_c   7.26681480
_cell_angle_alpha   84.22276949
_cell_angle_beta   89.99262922
_cell_angle_gamma   90.05635762
_symmetry_Int_Tables_number   1
_chemical_formula_structural   YBiH12C2(NCl3)2
_chemical_formula_sum   'Y2 Bi2 H24 C4 N4 Cl12'
_cell_volume   693.34223976
_cell_formula_units_Z   2
loop_
 _symmetry_equiv_pos_site_id
 _symmetry_equiv_pos_as_xyz
  1  'x, y, z'
loop_
 _atom_site_type_symbol
 _atom_site_label
 _atom_site_symmetry_multiplicity
 _atom_site_fract_x
 _atom_site_fract_y
 _atom_site_fract_z
 _atom_site_occupancy
  C  C0  1  0.38682757  0.24856738  0.40211269  1
  C  C1  1  0.88781359  0.25148477  0.09864643  1
  C  C2  1  0.61316492  0.75143721  0.59789925  1
  C  C3  1  0.11219662  0.74851954  0.90136448  1
  N  N4  1  0.55805523  0.24539238  0.50708217  1
  N  N5  1  0.05858694  0.25449938  0.99283922  1
  N  N6  1  0.44193742  0.75461147  0.49292900  1
  N  N7  1  0.94142239  0.74550033  0.00717040  1
  H  H8  1  0.41822864  0.25571305  0.25412406  1
  H  H9  1  0.31014068  0.17717109  0.44226675  1
  H  H10  1  0.30986717  0.31601658  0.43638357  1
  H  H11  1  0.63746870  0.18393411  0.47435784  1
  H  H12  1  0.63157988  0.31330947  0.48018326  1
  H  H13  1  0.53360709  0.23462390  0.65020367  1
  H  H14  1  0.91980991  0.24435252  0.24648690  1
  H  H15  1  0.81022088  0.18411020  0.06479959  1
  H  H16  1  0.81148940  0.32296088  0.05879993  1
  H  H17  1  0.13181034  0.18652371  0.01950286  1
  H  H18  1  0.13854804  0.31589274  0.02508957  1
  H  H19  1  0.03355668  0.26522961  0.84983951  1
  H  H20  1  0.58176381  0.74429184  0.74588796  1
  H  H21  1  0.69012606  0.68398836  0.56362884  1
  H  H22  1  0.68985055  0.82283380  0.55774468  1
  H  H23  1  0.36252314  0.81606941  0.52565226  1
  H  H24  1  0.36841306  0.68669398  0.51982869  1
  H  H25  1  0.46638686  0.76537926  0.34980816  1
  H  H26  1  0.08020122  0.75565284  0.75352387  1
  H  H27  1  0.18978631  0.81589413  0.93521458  1
  H  H28  1  0.18852366  0.67704364  0.94120889  1
  H  H29  1  0.86819547  0.81347577  0.98050785  1
  H  H30  1  0.86146522  0.68410673  0.97491690  1
  H  H31  1  0.96645049  0.73477006  0.15017026  1
  Y  Y32  1  0.50000557  0.00000164  0.00000789  1
  Y  Y33  1  0.99999562  0.50000162  0.50000752  1
  Bi  Bi34  1  0.00000505  0.00000183  0.50000758  1
  Bi  Bi35  1  0.49999502  0.50000172  0.00000792  1
  Cl  Cl36  1  0.46077536  0.19963259  0.92019343  1
  Cl  Cl37  1  0.18033550  0.99621975  0.16094087  1
  Cl  Cl38  1  0.66246829  0.02915723  0.31968796  1
  Cl  Cl39  1  0.96005613  0.30037937  0.58025042  1
  Cl  Cl40  1  0.33754136  0.97084805  0.68032796  1
  Cl  Cl41  1  0.81967490  0.00378276  0.83907420  1
  Cl  Cl42  1  0.53923601  0.80037065  0.07982281  1
  Cl  Cl43  1  0.68041225  0.50357557  0.33903341  1
  Cl  Cl44  1  0.16244274  0.47083366  0.18042292  1
  Cl  Cl45  1  0.03993538  0.69962382  0.41976451  1
  Cl  Cl46  1  0.31957903  0.49642724  0.66098162  1
  Cl  Cl47  1  0.83754757  0.52917066  0.81959150  1
