# generated using pymatgen
data_YTlH12C2(NCl3)2
_symmetry_space_group_name_H-M   'P 1'
_cell_length_a   8.14891756
_cell_length_b   11.43893032
_cell_length_c   7.56917530
_cell_angle_alpha   87.09370700
_cell_angle_beta   89.99747869
_cell_angle_gamma   90.00499646
_symmetry_Int_Tables_number   1
_chemical_formula_structural   YTlH12C2(NCl3)2
_chemical_formula_sum   'Y2 Tl2 H24 C4 N4 Cl12'
_cell_volume   704.65242182
_cell_formula_units_Z   2
loop_
 _symmetry_equiv_pos_site_id
 _symmetry_equiv_pos_as_xyz
  1  'x, y, z'
loop_
 _atom_site_type_symbol
 _atom_site_label
 _atom_site_symmetry_multiplicity
 _atom_site_fract_x
 _atom_site_fract_y
 _atom_site_fract_z
 _atom_site_occupancy
  C  C0  1  0.42099561  0.24969852  0.42898063  1
  C  C1  1  0.92080269  0.24996658  0.07131863  1
  C  C2  1  0.57938731  0.75029321  0.57218662  1
  C  C3  1  0.07883452  0.75004884  0.92816081  1
  N  N4  1  0.57703044  0.24952868  0.53037156  1
  N  N5  1  0.07650488  0.25049817  0.96930932  1
  N  N6  1  0.42373585  0.75049034  0.47013258  1
  N  N7  1  0.92298932  0.74947302  0.02992489  1
  H  H8  1  0.45051816  0.25344685  0.28778415  1
  H  H9  1  0.35524216  0.16849328  0.46408674  1
  H  H10  1  0.34879369  0.32596341  0.46237208  1
  H  H11  1  0.64712696  0.17812162  0.49834225  1
  H  H12  1  0.64369084  0.32539454  0.49796911  1
  H  H13  1  0.55535561  0.24430108  0.66672715  1
  H  H14  1  0.95081336  0.24633633  0.21238385  1
  H  H15  1  0.84884191  0.17349449  0.03829178  1
  H  H16  1  0.85454906  0.33098689  0.03643395  1
  H  H17  1  0.14353540  0.17478141  1.00148217  1
  H  H18  1  0.14642232  0.32205984  1.00111687  1
  H  H19  1  0.05445872  0.25569371  0.83302552  1
  H  H20  1  0.54930296  0.74659228  0.71325619  1
  H  H21  1  0.65169871  0.67399326  0.53919438  1
  H  H22  1  0.64530000  0.83147139  0.53738046  1
  H  H23  1  0.35356141  0.82193055  0.50186624  1
  H  H24  1  0.35693555  0.67465053  0.50228909  1
  H  H25  1  0.44582452  0.75569754  0.33384201  1
  H  H26  1  0.04901634  0.75368016  0.78703359  1
  H  H27  1  0.15070755  0.82653459  0.96130885  1
  H  H28  1  0.14508133  0.66904334  0.96312253  1
  H  H29  1  0.85595316  0.82517845  0.99771078  1
  H  H30  1  0.85317617  0.67788361  -0.00199085  1
  H  H31  1  0.94491779  0.74427128  0.16623423  1
  Y  Y32  1  0.49981797  0.00002502  0.00014869  1
  Y  Y33  1  0.00005051  0.50003978  0.49969484  1
  Tl  Tl34  1  0.00000977  0.99992859  0.49996198  1
  Tl  Tl35  1  0.49994751  0.50001699  0.99996334  1
  Cl  Cl36  1  0.48645331  0.22941360  0.93734262  1
  Cl  Cl37  1  0.21177328  0.01161605  0.15464986  1
  Cl  Cl38  1  0.65478446  0.02326734  0.30183306  1
  Cl  Cl39  1  0.98654482  0.27062743  0.56228371  1
  Cl  Cl40  1  0.34494621  0.97659624  0.69840904  1
  Cl  Cl41  1  0.78769633  0.98853680  0.84517261  1
  Cl  Cl42  1  0.51325062  0.77063221  0.06296763  1
  Cl  Cl43  1  0.71185235  0.48872533  0.34533343  1
  Cl  Cl44  1  0.15479975  0.47659514  0.19790860  1
  Cl  Cl45  1  0.01377590  0.72939100  0.43682554  1
  Cl  Cl46  1  0.28798413  0.51147407  0.65457215  1
  Cl  Cl47  1  0.84523251  0.52319490  0.80158133  1
