# generated using pymatgen
data_YH12AuC2(NCl3)2
_symmetry_space_group_name_H-M   'P 1'
_cell_length_a   7.78167612
_cell_length_b   11.69691085
_cell_length_c   7.34733160
_cell_angle_alpha   86.02365377
_cell_angle_beta   102.28034425
_cell_angle_gamma   89.48337973
_symmetry_Int_Tables_number   1
_chemical_formula_structural   YH12AuC2(NCl3)2
_chemical_formula_sum   'Y2 H24 Au2 C4 N4 Cl12'
_cell_volume   651.69655127
_cell_formula_units_Z   2
loop_
 _symmetry_equiv_pos_site_id
 _symmetry_equiv_pos_as_xyz
  1  'x, y, z'
loop_
 _atom_site_type_symbol
 _atom_site_label
 _atom_site_symmetry_multiplicity
 _atom_site_fract_x
 _atom_site_fract_y
 _atom_site_fract_z
 _atom_site_occupancy
  C  C0  1  0.41313536  0.25107698  0.42507553  1
  C  C1  1  0.91444155  0.24842029  0.06597535  1
  C  C2  1  0.58686226  0.74892600  0.57493636  1
  C  C3  1  0.08556235  0.75158280  0.93403703  1
  N  N4  1  0.59330084  0.24149821  0.54335895  1
  N  N5  1  0.08381490  0.26239303  0.00614078  1
  N  N6  1  0.40669732  0.75850524  0.45665196  1
  N  N7  1  0.91618895  0.73761047  0.99387165  1
  H  H8  1  0.42382122  0.25793483  0.27850761  1
  H  H9  1  0.34096436  0.17473052  0.45527441  1
  H  H10  1  0.34830798  0.32784874  0.45777329  1
  H  H11  1  0.65905480  0.16913343  0.51618868  1
  H  H12  1  0.66631208  0.31161740  0.51626695  1
  H  H13  1  0.58661585  0.23597968  0.68419714  1
  H  H14  1  0.94062239  0.23756419  0.21852978  1
  H  H15  1  0.85188642  0.17223413  0.00652041  1
  H  H16  1  0.83145991  0.32491905  0.01620799  1
  H  H17  1  0.16490229  0.19026947  0.05205390  1
  H  H18  1  0.14530101  0.33520500  0.05904595  1
  H  H19  1  0.06524111  0.27113089  0.86056644  1
  H  H20  1  0.57617644  0.74206991  0.72150492  1
  H  H21  1  0.65168960  0.67215326  0.54224127  1
  H  H22  1  0.65903529  0.82527191  0.54473634  1
  H  H23  1  0.34094452  0.83087014  0.48382131  1
  H  H24  1  0.33368574  0.68838649  0.48374447  1
  H  H25  1  0.41338372  0.76402296  0.31581485  1
  H  H26  1  0.05938163  0.76243818  0.78148268  1
  H  H27  1  0.14811730  0.82776926  0.99349109  1
  H  H28  1  0.16854409  0.67508423  0.98380541  1
  H  H29  1  0.83510171  0.80973409  0.94795811  1
  H  H30  1  0.85470255  0.66479847  0.94096656  1
  H  H31  1  0.93476234  0.72887276  0.13944595  1
  Y  Y32  1  0.50000173  0.00000148  0.00000690  1
  Y  Y33  1  0.99999888  0.50000179  0.50000594  1
  Au  Au34  1  0.00000152  0.00000176  0.50000686  1
  Au  Au35  1  0.49999897  0.50000162  0.00000596  1
  Cl  Cl36  1  0.47259081  0.22147911  0.92850875  1
  Cl  Cl37  1  0.23454927  0.00997551  0.16042857  1
  Cl  Cl38  1  0.70828761  0.02693692  0.34191100  1
  Cl  Cl39  1  0.01086385  0.27735307  0.56489326  1
  Cl  Cl40  1  0.29171536  0.97306648  0.65810264  1
  Cl  Cl41  1  0.76545338  0.99002732  0.83958427  1
  Cl  Cl42  1  0.52741288  0.77852393  0.07150510  1
  Cl  Cl43  1  0.66060103  0.48457515  0.30617463  1
  Cl  Cl44  1  0.15196922  0.49289863  0.21996604  1
  Cl  Cl45  1  0.98913451  0.72265051  0.43511919  1
  Cl  Cl46  1  0.33939695  0.51542803  0.69383746  1
  Cl  Cl47  1  0.84802985  0.50710494  0.78004688  1
