# generated using pymatgen
data_YH12IrC2(NCl3)2
_symmetry_space_group_name_H-M   'P 1'
_cell_length_a   6.92701374
_cell_length_b   13.02485465
_cell_length_c   6.82601909
_cell_angle_alpha   80.01855491
_cell_angle_beta   89.98922765
_cell_angle_gamma   90.12016589
_symmetry_Int_Tables_number   1
_chemical_formula_structural   YH12IrC2(NCl3)2
_chemical_formula_sum   'Y2 H24 Ir2 C4 N4 Cl12'
_cell_volume   606.54306952
_cell_formula_units_Z   2
loop_
 _symmetry_equiv_pos_site_id
 _symmetry_equiv_pos_as_xyz
  1  'x, y, z'
loop_
 _atom_site_type_symbol
 _atom_site_label
 _atom_site_symmetry_multiplicity
 _atom_site_fract_x
 _atom_site_fract_y
 _atom_site_fract_z
 _atom_site_occupancy
  C  C0  1  0.41932184  0.26046494  0.39202662  1
  C  C1  1  0.92048561  0.23959903  0.10819635  1
  C  C2  1  0.58067369  0.73953901  0.60798792  1
  C  C3  1  0.07951985  0.76040625  0.89181945  1
  N  N4  1  0.60333135  0.21533617  0.47498609  1
  N  N5  1  0.10455740  0.28454771  0.02402253  1
  N  N6  1  0.39666530  0.78466669  0.52502320  1
  N  N7  1  0.89544929  0.71545243  0.97598698  1
  H  H8  1  0.44296437  0.29748094  0.23694131  1
  H  H9  1  0.31063637  0.19827750  0.40676710  1
  H  H10  1  0.37479736  0.31975235  0.47797363  1
  H  H11  1  0.64386652  0.14937494  0.41854549  1
  H  H12  1  0.71604354  0.26867678  0.45385171  1
  H  H13  1  0.59045369  0.19456470  0.62916947  1
  H  H14  1  0.94433760  0.20291944  0.26337532  1
  H  H15  1  0.87500526  0.18008867  0.02299288  1
  H  H16  1  0.81237748  0.30181581  0.09343949  1
  H  H17  1  0.21687873  0.23123209  0.04488447  1
  H  H18  1  0.14601502  0.35063183  0.07985124  1
  H  H19  1  0.09109209  0.30512445  0.86987990  1
  H  H20  1  0.55702909  0.70252458  0.76307394  1
  H  H21  1  0.62520161  0.68025091  0.52204473  1
  H  H22  1  0.68935795  0.80172727  0.59324744  1
  H  H23  1  0.35612693  0.85062773  0.58146033  1
  H  H24  1  0.28395315  0.73132502  0.54615694  1
  H  H25  1  0.40954595  0.80543645  0.37083982  1
  H  H26  1  0.05566875  0.79708839  0.73664144  1
  H  H27  1  0.12499416  0.81991531  0.97702829  1
  H  H28  1  0.18763195  0.69819152  0.90657369  1
  H  H29  1  0.78312467  0.76876652  0.95512713  1
  H  H30  1  0.85399748  0.64936939  0.92015302  1
  H  H31  1  0.90891234  0.69487381  0.13012947  1
  Y  Y32  1  0.50000513  0.00000174  0.00000602  1
  Y  Y33  1  0.99999607  0.50000159  0.50000624  1
  Ir  Ir34  1  0.00000479  0.00000216  0.50000599  1
  Ir  Ir35  1  0.49999597  0.50000181  0.00000615  1
  Cl  Cl36  1  0.50025521  0.20221522  0.91894315  1
  Cl  Cl37  1  0.17299769  0.00488685  0.20332551  1
  Cl  Cl38  1  0.70652209  -0.00320284  0.33184830  1
  Cl  Cl39  1  0.99917123  0.29780509  0.58098441  1
  Cl  Cl40  1  0.29348744  1.00320641  0.66816411  1
  Cl  Cl41  1  0.82701174  0.99511791  0.79668611  1
  Cl  Cl42  1  0.49975304  0.79778841  0.08106939  1
  Cl  Cl43  1  0.67290660  0.49505092  0.29671486  1
  Cl  Cl44  1  0.20648776  0.50340713  0.16808965  1
  Cl  Cl45  1  0.00082277  0.70219820  0.41902969  1
  Cl  Cl46  1  0.32708585  0.50495296  0.70329712  1
  Cl  Cl47  1  0.79350395  0.49659610  0.83192254  1
