# generated using pymatgen
data_YReH12C2(NCl3)2
_symmetry_space_group_name_H-M   'P 1'
_cell_length_a   7.38950164
_cell_length_b   10.17856317
_cell_length_c   7.25497591
_cell_angle_alpha   90.50288622
_cell_angle_beta   89.99648241
_cell_angle_gamma   90.01833117
_symmetry_Int_Tables_number   1
_chemical_formula_structural   YReH12C2(NCl3)2
_chemical_formula_sum   'Y2 Re2 H24 C4 N4 Cl12'
_cell_volume   545.65840524
_cell_formula_units_Z   2
loop_
 _symmetry_equiv_pos_site_id
 _symmetry_equiv_pos_as_xyz
  1  'x, y, z'
loop_
 _atom_site_type_symbol
 _atom_site_label
 _atom_site_symmetry_multiplicity
 _atom_site_fract_x
 _atom_site_fract_y
 _atom_site_fract_z
 _atom_site_occupancy
  C  C0  1  0.43613313  0.24493725  0.43053244  1
  C  C1  1  0.93662185  0.25518652  0.06937436  1
  C  C2  1  0.56386931  0.75506421  0.56947279  1
  C  C3  1  0.06338159  0.74481722  0.93063968  1
  N  N4  1  0.59469582  0.24212226  0.55222267  1
  N  N5  1  0.09488558  0.25754757  0.94722904  1
  N  N6  1  0.40529251  0.75788274  0.44779890  1
  N  N7  1  0.90511956  0.74245762  0.05278689  1
  H  H8  1  0.48297009  0.24588389  0.28834989  1
  H  H9  1  0.35230172  0.15923271  0.45666668  1
  H  H10  1  0.36155891  0.33494938  0.45916532  1
  H  H11  1  0.67520718  0.16039146  0.52784438  1
  H  H12  1  0.67383784  0.32396923  0.53029268  1
  H  H13  1  0.55879491  0.24339952  0.69101220  1
  H  H14  1  0.98388263  0.25437916  0.21141617  1
  H  H15  1  0.86164208  0.16521600  0.04125230  1
  H  H16  1  0.85303772  0.34094065  0.04323598  1
  H  H17  1  0.17364111  0.17556424  0.96895661  1
  H  H18  1  0.17586191  0.33915048  0.97123931  1
  H  H19  1  0.05858108  0.25630034  0.80852275  1
  H  H20  1  0.51702522  0.75411815  0.71166337  1
  H  H21  1  0.63843717  0.66505390  0.54084588  1
  H  H22  1  0.64769625  0.84076866  0.54334577  1
  H  H23  1  0.32479554  0.83961020  0.47216311  1
  H  H24  1  0.32616094  0.67603762  0.46971647  1
  H  H25  1  0.44120633  0.75660305  0.30899068  1
  H  H26  1  0.01612583  0.74562481  0.78859913  1
  H  H27  1  0.13836326  0.83478805  0.95876519  1
  H  H28  1  0.14696592  0.65906282  0.95678208  1
  H  H29  1  0.82636201  0.82444245  0.03105291  1
  H  H30  1  0.82413912  0.66085481  0.02877180  1
  H  H31  1  0.94141770  0.74370530  0.19148814  1
  Y  Y32  1  0.50000054  0.00000086  0.00000671  1
  Y  Y33  1  0.00000087  0.50000072  0.50000527  1
  Re  Re34  1  0.00000035  0.00000050  0.50000704  1
  Re  Re35  1  0.50000113  0.50000106  0.00000567  1
  Cl  Cl36  1  0.50800171  0.26005013  0.97050626  1
  Cl  Cl37  1  0.20372351  0.00462166  0.22228245  1
  Cl  Cl38  1  0.73299995  0.00017640  0.28599987  1
  Cl  Cl39  1  0.00768051  0.23995049  0.52925909  1
  Cl  Cl40  1  0.26700139  0.99982643  0.71401387  1
  Cl  Cl41  1  0.79627740  0.99537998  0.77773154  1
  Cl  Cl42  1  0.49200215  0.73995194  0.02950527  1
  Cl  Cl43  1  0.70378136  0.49525612  0.27765511  1
  Cl  Cl44  1  0.23301794  0.49980970  0.21406776  1
  Cl  Cl45  1  0.99231751  0.76005063  0.47075550  1
  Cl  Cl46  1  0.29622050  0.50474621  0.72235590  1
  Cl  Cl47  1  0.76698505  0.50019321  0.78594370  1
