# generated using pymatgen
data_HfH12C2(I2N)3
_symmetry_space_group_name_H-M   'P 1'
_cell_length_a   8.30572539
_cell_length_b   11.39822541
_cell_length_c   8.54467824
_cell_angle_alpha   86.78922228
_cell_angle_beta   93.72403046
_cell_angle_gamma   89.25476712
_symmetry_Int_Tables_number   1
_chemical_formula_structural   HfH12C2(I2N)3
_chemical_formula_sum   'Hf2 H24 C4 I12 N6'
_cell_volume   805.84152793
_cell_formula_units_Z   2
loop_
 _symmetry_equiv_pos_site_id
 _symmetry_equiv_pos_as_xyz
  1  'x, y, z'
loop_
 _atom_site_type_symbol
 _atom_site_label
 _atom_site_symmetry_multiplicity
 _atom_site_fract_x
 _atom_site_fract_y
 _atom_site_fract_z
 _atom_site_occupancy
  C  C0  1  0.54006942  0.24253796  0.37489369  1
  C  C1  1  0.03492992  0.26161921  0.07780596  1
  C  C2  1  0.50457582  0.76331000  0.58955202  1
  C  C3  1  0.98284084  0.71316004  0.89531382  1
  N  N4  1  0.45082824  0.27898459  0.51312746  1
  N  N5  1  0.07771923  0.24114172  0.91580944  1
  N  N6  1  0.47355352  0.74922999  0.41876644  1
  N  N7  1  0.99200643  0.79424581  0.03088471  1
  H  H8  1  0.53337485  0.14662034  0.37305533  1
  H  H9  1  0.33469036  0.30802990  0.47572850  1
  H  H10  1  0.48385653  0.38471132  0.22601466  1
  H  H11  1  0.43735701  0.20786736  0.59423434  1
  H  H12  1  0.66675411  0.26777523  0.39749719  1
  H  H13  1  0.50915683  0.34557485  0.57135604  1
  H  H14  1  0.14612990  0.27471852  0.15021139  1
  H  H15  1  0.97233734  0.18420144  0.12342266  1
  H  H16  1  0.95590419  0.33960552  0.07485776  1
  H  H17  1  0.15752371  0.17013468  0.91108589  1
  H  H18  1  0.13043356  0.31462403  0.86294439  1
  H  H19  1  0.97594094  0.22065855  0.84576729  1
  H  H20  1  0.38904154  0.77540083  0.64193358  1
  H  H21  1  0.56694751  0.68429945  0.64304190  1
  H  H22  1  0.58002075  0.84041501  0.60564874  1
  H  H23  1  0.41889627  0.82464208  0.36147879  1
  H  H24  1  0.39691020  0.67949810  0.39588674  1
  H  H25  1  0.57846983  0.73274798  0.36397394  1
  H  H26  1  0.02738748  0.62611431  0.94784618  1
  H  H27  1  0.85264459  0.70515629  0.86322330  1
  H  H28  1  0.09425439  0.84499481  0.02502252  1
  H  H29  1  0.71377244  0.87442743  0.95920918  1
  H  H30  1  0.99770792  0.74771972  0.13824614  1
  H  H31  1  0.88801569  0.84897989  0.02172383  1
  N  N32  1  0.08003562  0.76603789  0.77962720  1
  N  N33  1  0.45699386  0.29625869  0.23301282  1
  Hf  Hf34  1  0.54287224  0.96625039  0.00047267  1
  Hf  Hf35  1  0.99036478  0.49114997  0.50944048  1
  I  I36  1  0.56793376  0.23826392  0.03144436  1
  I  I37  1  0.28079178  0.99829871  0.21978184  1
  I  I38  1  0.75831233  0.96686793  0.27458932  1
  I  I39  1  0.01395335  0.24992286  0.47931730  1
  I  I40  1  0.30264077  0.02755773  0.74477700  1
  I  I41  1  0.74562430  0.08708931  0.77686057  1
  I  I42  1  0.44535984  0.73565220  0.99844277  1
  I  I43  1  0.75092630  0.54259949  0.26391689  1
  I  I44  1  0.20815804  0.53736742  0.27019254  1
  I  I45  1  0.98426833  0.74889560  0.55893446  1
  I  I46  1  0.25150085  0.49214843  0.73805134  1
  I  I47  1  0.75623621  0.46257077  0.73187124  1
