# generated using pymatgen
data_YSbH12C2(NCl3)2
_symmetry_space_group_name_H-M   'P 1'
_cell_length_a   7.37489405
_cell_length_b   12.90963654
_cell_length_c   7.22787758
_cell_angle_alpha   83.61276285
_cell_angle_beta   89.99214718
_cell_angle_gamma   90.07673663
_symmetry_Int_Tables_number   1
_chemical_formula_structural   YSbH12C2(NCl3)2
_chemical_formula_sum   'Y2 Sb2 H24 C4 N4 Cl12'
_cell_volume   683.87384502
_cell_formula_units_Z   2
loop_
 _symmetry_equiv_pos_site_id
 _symmetry_equiv_pos_as_xyz
  1  'x, y, z'
loop_
 _atom_site_type_symbol
 _atom_site_label
 _atom_site_symmetry_multiplicity
 _atom_site_fract_x
 _atom_site_fract_y
 _atom_site_fract_z
 _atom_site_occupancy
  C  C0  1  0.38738218  0.24766409  0.40036739  1
  C  C1  1  0.88844066  0.25240054  0.10027418  1
  C  C2  1  0.61260947  0.75234056  0.59964453  1
  C  C3  1  0.11157031  0.74760393  0.89973762  1
  N  N4  1  0.56207018  0.24329928  0.50220447  1
  N  N5  1  0.06270671  0.25655328  0.99761268  1
  N  N6  1  0.43792235  0.75670437  0.49780587  1
  N  N7  1  0.93730281  0.74344689  0.00239678  1
  H  H8  1  0.41613458  0.25640549  0.25082760  1
  H  H9  1  0.31030615  0.17608231  0.44155437  1
  H  H10  1  0.31117655  0.31475060  0.43756809  1
  H  H11  1  0.64066543  0.18176811  0.46809186  1
  H  H12  1  0.63628627  0.31121729  0.47371165  1
  H  H13  1  0.53993039  0.23210948  0.64670270  1
  H  H14  1  0.91772457  0.24367059  0.24968583  1
  H  H15  1  0.81148660  0.18538576  0.06347402  1
  H  H16  1  0.81184133  0.32406048  0.05936460  1
  H  H17  1  0.13651872  0.18860000  0.02587798  1
  H  H18  1  0.14197206  0.31804405  0.03126577  1
  H  H19  1  0.04000610  0.26772481  0.85322813  1
  H  H20  1  0.58385642  0.74359945  0.74918417  1
  H  H21  1  0.68881643  0.68525432  0.56244476  1
  H  H22  1  0.68968450  0.82392264  0.55845742  1
  H  H23  1  0.35932612  0.81823556  0.53191631  1
  H  H24  1  0.36370633  0.68878635  0.52629876  1
  H  H25  1  0.46006444  0.76789354  0.35330796  1
  H  H26  1  0.08228786  0.75633529  0.75032563  1
  H  H27  1  0.18852014  0.81461948  0.93654135  1
  H  H28  1  0.18817323  0.67594500  0.94064532  1
  H  H29  1  0.86348715  0.81139883  0.97413268  1
  H  H30  1  0.85804203  0.68195485  0.96873969  1
  H  H31  1  0.96000068  0.73227443  0.14678162  1
  Y  Y32  1  0.50000596  0.00000163  0.00000773  1
  Y  Y33  1  0.99999508  0.50000151  0.50000774  1
  Sb  Sb34  1  0.00000527  0.00000173  0.50000806  1
  Sb  Sb35  1  0.49999420  0.50000154  0.00000817  1
  Cl  Cl36  1  0.46420721  0.19999241  0.91858950  1
  Cl  Cl37  1  0.17918621  0.99686234  0.16656703  1
  Cl  Cl38  1  0.66760066  0.02651284  0.32044626  1
  Cl  Cl39  1  0.96343109  0.30000852  0.58181580  1
  Cl  Cl40  1  0.33240972  0.97349212  0.67956963  1
  Cl  Cl41  1  0.82082582  0.00314030  0.83344910  1
  Cl  Cl42  1  0.53580440  0.80001074  0.08142579  1
  Cl  Cl43  1  0.67926841  0.50288416  0.33342782  1
  Cl  Cl44  1  0.16755542  0.47350120  0.17965682  1
  Cl  Cl45  1  0.03656000  0.69999440  0.41819940  1
  Cl  Cl46  1  0.32072162  0.49711821  0.66658804  1
  Cl  Cl47  1  0.83243391  0.52650298  0.82035793  1
