# generated using pymatgen
data_YInH12C2(NCl3)2
_symmetry_space_group_name_H-M   'P 1'
_cell_length_a   8.07280668
_cell_length_b   11.37524352
_cell_length_c   7.61323132
_cell_angle_alpha   86.51268583
_cell_angle_beta   89.99791721
_cell_angle_gamma   90.00048268
_symmetry_Int_Tables_number   1
_chemical_formula_structural   YInH12C2(NCl3)2
_chemical_formula_sum   'Y2 In2 H24 C4 N4 Cl12'
_cell_volume   697.82953775
_cell_formula_units_Z   2
loop_
 _symmetry_equiv_pos_site_id
 _symmetry_equiv_pos_as_xyz
  1  'x, y, z'
loop_
 _atom_site_type_symbol
 _atom_site_label
 _atom_site_symmetry_multiplicity
 _atom_site_fract_x
 _atom_site_fract_y
 _atom_site_fract_z
 _atom_site_occupancy
  C  C0  1  0.41558359  0.25194413  0.41903995  1
  C  C1  1  0.91833974  0.24822734  0.08092929  1
  C  C2  1  0.58149382  0.74805208  0.57924626  1
  C  C3  1  0.08403058  0.75170730  0.92059177  1
  N  N4  1  0.56756951  0.24668062  0.52891005  1
  N  N5  1  0.07004736  0.25319503  0.97057576  1
  N  N6  1  0.42998112  0.75312973  0.46860063  1
  N  N7  1  0.93233822  0.74671277  0.03093803  1
  H  H8  1  0.45256173  0.25436469  0.28060230  1
  H  H9  1  0.34206780  0.17281857  0.45114938  1
  H  H10  1  0.34633516  0.33126192  0.44640376  1
  H  H11  1  0.63545438  0.17257245  0.50232099  1
  H  H12  1  0.64053388  0.32076038  0.49950656  1
  H  H13  1  0.53971896  0.24255739  0.66332800  1
  H  H14  1  0.95567333  0.24586648  0.21924767  1
  H  H15  1  0.84879119  0.16897107  0.05386155  1
  H  H16  1  0.84498746  0.32743055  0.04887060  1
  H  H17  1  0.14292329  0.17908738  0.99994679  1
  H  H18  1  0.13820489  0.32727424  0.99655532  1
  H  H19  1  0.04165847  0.25717603  0.83627148  1
  H  H20  1  0.54393120  0.74569473  0.71748385  1
  H  H21  1  0.65095842  0.66875311  0.55225852  1
  H  H22  1  0.65501540  0.82719881  0.54729778  1
  H  H23  1  0.36185608  0.82724458  0.49437540  1
  H  H24  1  0.35691974  0.67911235  0.49791676  1
  H  H25  1  0.45856780  0.75705102  0.33434104  1
  H  H26  1  0.04666855  0.75410862  0.78228371  1
  H  H27  1  0.15358356  0.83095563  0.94766575  1
  H  H28  1  0.15738651  0.67250350  0.95259257  1
  H  H29  1  0.85945913  0.82080296  0.00154305  1
  H  H30  1  0.86415607  0.67265605  0.00481052  1
  H  H31  1  0.96052282  0.74270001  0.16528162  1
  Y  Y32  1  0.50088498  0.00003699  0.99963997  1
  Y  Y33  1  0.99940324  0.50004481  0.50080369  1
  In  In34  1  0.99991355  0.00029582  0.50037659  1
  In  In35  1  0.50024853  0.50002126  0.99994038  1
  Cl  Cl36  1  0.48423010  0.23109648  0.93613089  1
  Cl  Cl37  1  0.21037089  0.00998885  0.15530110  1
  Cl  Cl38  1  0.65423545  0.02086078  0.30240374  1
  Cl  Cl39  1  0.98184467  0.26903616  0.56467581  1
  Cl  Cl40  1  0.34674000  0.97957964  0.69753054  1
  Cl  Cl41  1  0.79204722  0.98962255  0.84553799  1
  Cl  Cl42  1  0.51826655  0.76893587  0.06292577  1
  Cl  Cl43  1  0.70886266  0.48967572  0.34534896  1
  Cl  Cl44  1  0.15348505  0.47988901  0.19847891  1
  Cl  Cl45  1  0.01600009  0.73123290  0.43785380  1
  Cl  Cl46  1  0.29035513  0.51009839  0.65537189  1
  Cl  Cl47  1  0.84581584  0.52109152  0.80322987  1
