# generated using pymatgen
data_YAgH12C2(NCl3)2
_symmetry_space_group_name_H-M   'P 1'
_cell_length_a   7.75474629
_cell_length_b   10.76381691
_cell_length_c   7.42999727
_cell_angle_alpha   87.99157944
_cell_angle_beta   90.01247875
_cell_angle_gamma   90.02643417
_symmetry_Int_Tables_number   1
_chemical_formula_structural   YAgH12C2(NCl3)2
_chemical_formula_sum   'Y2 Ag2 H24 C4 N4 Cl12'
_cell_volume   619.80577818
_cell_formula_units_Z   2
loop_
 _symmetry_equiv_pos_site_id
 _symmetry_equiv_pos_as_xyz
  1  'x, y, z'
loop_
 _atom_site_type_symbol
 _atom_site_label
 _atom_site_symmetry_multiplicity
 _atom_site_fract_x
 _atom_site_fract_y
 _atom_site_fract_z
 _atom_site_occupancy
  C  C0  1  0.40701511  0.24804267  0.41687884  1
  C  C1  1  0.90770966  0.25200024  0.08347746  1
  C  C2  1  0.59298091  0.75196098  0.58313360  1
  C  C3  1  0.09229727  0.74800396  0.91653325  1
  N  N4  1  0.56596256  0.24607277  0.52696637  1
  N  N5  1  0.06622392  0.25386226  0.97279165  1
  N  N6  1  0.43403268  0.75393196  0.47304720  1
  N  N7  1  0.93378250  0.74613894  0.02721828  1
  H  H8  1  0.44326598  0.25089184  0.27480959  1
  H  H9  1  0.33185631  0.16466631  0.44948717  1
  H  H10  1  0.33430862  0.33124935  0.44694473  1
  H  H11  1  0.63830950  0.16794579  0.50053311  1
  H  H12  1  0.63998508  0.32387025  0.49396280  1
  H  H13  1  0.53869076  0.24587888  0.66445743  1
  H  H14  1  0.94454103  0.24914804  0.22539649  1
  H  H15  1  0.83467197  0.16882065  0.05374382  1
  H  H16  1  0.83262491  0.33541301  0.05114582  1
  H  H17  1  0.14018667  0.17604500  0.00558727  1
  H  H18  1  0.13883949  0.33197080  0.99888107  1
  H  H19  1  0.03843588  0.25402992  0.83539883  1
  H  H20  1  0.55673108  0.74911083  0.72520319  1
  H  H21  1  0.66568705  0.66875450  0.55306578  1
  H  H22  1  0.66813962  0.83533750  0.55052590  1
  H  H23  1  0.36168667  0.83205924  0.49948119  1
  H  H24  1  0.36000970  0.67613473  0.50605049  1
  H  H25  1  0.46130406  0.75412606  0.33555599  1
  H  H26  1  0.05546659  0.75085865  0.77461403  1
  H  H27  1  0.16533381  0.83118335  0.94627058  1
  H  H28  1  0.16738294  0.66459113  0.94886188  1
  H  H29  1  0.85981854  0.82395592  0.99442426  1
  H  H30  1  0.86116848  0.66803009  0.00112576  1
  H  H31  1  0.96156956  0.74596974  0.16461128  1
  Y  Y32  1  0.50000167  0.00000135  0.00000669  1
  Y  Y33  1  0.99999991  0.50000109  0.50000681  1
  Ag  Ag34  1  0.99999710  0.00000120  0.50000349  1
  Ag  Ag35  1  0.50000050  0.50000079  0.00001033  1
  Cl  Cl36  1  0.48464168  0.24534806  0.94534132  1
  Cl  Cl37  1  0.20947974  0.00666696  0.18684093  1
  Cl  Cl38  1  0.68692313  0.01106521  0.29776610  1
  Cl  Cl39  1  0.98420520  0.25463637  0.55474377  1
  Cl  Cl40  1  0.31307760  0.98894056  0.70224918  1
  Cl  Cl41  1  0.79052371  0.99333463  0.81317428  1
  Cl  Cl42  1  0.51536416  0.75465513  0.05467415  1
  Cl  Cl43  1  0.70951974  0.49330432  0.31290596  1
  Cl  Cl44  1  0.18696526  0.48903368  0.20239663  1
  Cl  Cl45  1  0.01579137  0.74536586  0.44526901  1
  Cl  Cl46  1  0.29048009  0.50669695  0.68710741  1
  Cl  Cl47  1  0.81303400  0.51097078  0.79761545  1
