# generated using pymatgen
data_YTcH12C2(NCl3)2
_symmetry_space_group_name_H-M   'P 1'
_cell_length_a   7.45331069
_cell_length_b   10.22582136
_cell_length_c   7.24535329
_cell_angle_alpha   90.35925482
_cell_angle_beta   89.98538142
_cell_angle_gamma   90.01283517
_symmetry_Int_Tables_number   1
_chemical_formula_structural   YTcH12C2(NCl3)2
_chemical_formula_sum   'Y2 Tc2 H24 C4 N4 Cl12'
_cell_volume   552.20258036
_cell_formula_units_Z   2
loop_
 _symmetry_equiv_pos_site_id
 _symmetry_equiv_pos_as_xyz
  1  'x, y, z'
loop_
 _atom_site_type_symbol
 _atom_site_label
 _atom_site_symmetry_multiplicity
 _atom_site_fract_x
 _atom_site_fract_y
 _atom_site_fract_z
 _atom_site_occupancy
  C  C0  1  0.43641398  0.24529452  0.43269103  1
  C  C1  1  0.93692681  0.25481990  0.06689192  1
  C  C2  1  0.56358472  0.75470849  0.56732114  1
  C  C3  1  0.06307743  0.74518561  0.93312207  1
  N  N4  1  0.59684853  0.24374559  0.55031159  1
  N  N5  1  0.09703901  0.25608803  0.94875780  1
  N  N6  1  0.40315041  0.75625758  0.44970017  1
  N  N7  1  0.90296320  0.74391446  0.05125212  1
  H  H8  1  0.47946430  0.24461807  0.28910124  1
  H  H9  1  0.35418349  0.16017817  0.46302647  1
  H  H10  1  0.36314812  0.33520615  0.46110976  1
  H  H11  1  0.67558478  0.16203499  0.52572480  1
  H  H12  1  0.67442583  0.32488818  0.52358080  1
  H  H13  1  0.56453943  0.24649485  0.69031197  1
  H  H14  1  0.98025983  0.25565495  0.21032249  1
  H  H15  1  0.86339129  0.16491300  0.03886296  1
  H  H16  1  0.85476853  0.33994895  0.03652984  1
  H  H17  1  0.17448996  0.17486462  0.97525430  1
  H  H18  1  0.17616338  0.33774255  0.97306524  1
  H  H19  1  0.06445318  0.25337604  0.80890946  1
  H  H20  1  0.52053394  0.75538305  0.71091078  1
  H  H21  1  0.63685199  0.66479777  0.53890054  1
  H  H22  1  0.64581408  0.83982582  0.53698781  1
  H  H23  1  0.32441432  0.83796825  0.47428640  1
  H  H24  1  0.32557284  0.67511512  0.47643057  1
  H  H25  1  0.43546010  0.75350810  0.30969989  1
  H  H26  1  0.01974625  0.74434991  0.78968994  1
  H  H27  1  0.13660911  0.83509382  0.96115166  1
  H  H28  1  0.14523812  0.66005808  0.96348464  1
  H  H29  1  0.82551109  0.82513709  0.02475667  1
  H  H30  1  0.82384170  0.66225944  0.02694394  1
  H  H31  1  0.93554774  0.74662634  0.19110293  1
  Y  Y32  1  0.50000030  0.00000116  0.00000644  1
  Y  Y33  1  0.00000063  0.50000119  0.50000657  1
  Tc  Tc34  1  0.99999986  0.00000117  0.50000643  1
  Tc  Tc35  1  0.50000071  0.50000115  0.00000657  1
  Cl  Cl36  1  0.50805396  0.25844926  0.96920887  1
  Cl  Cl37  1  0.20844739  0.00572738  0.22076398  1
  Cl  Cl38  1  0.72999878  0.00181513  0.28453364  1
  Cl  Cl39  1  0.00773074  0.24155319  0.53030845  1
  Cl  Cl40  1  0.27000158  0.99818776  0.71547876  1
  Cl  Cl41  1  0.79155304  0.99427549  0.77924930  1
  Cl  Cl42  1  0.49194919  0.74155305  0.03080410  1
  Cl  Cl43  1  0.70848390  0.49417213  0.27919011  1
  Cl  Cl44  1  0.23000635  0.49817302  0.21551853  1
  Cl  Cl45  1  0.99226801  0.75844909  0.46970448  1
  Cl  Cl46  1  0.29151708  0.50583037  0.72082331  1
  Cl  Cl47  1  0.76999471  0.50183025  0.78449414  1
