# generated using pymatgen
data_ZrHgH12C2(NCl3)2
_symmetry_space_group_name_H-M   'P 1'
_cell_length_a   7.72775504
_cell_length_b   11.59000194
_cell_length_c   8.02415852
_cell_angle_alpha   77.39944397
_cell_angle_beta   90.00033246
_cell_angle_gamma   90.00086032
_symmetry_Int_Tables_number   1
_chemical_formula_structural   ZrHgH12C2(NCl3)2
_chemical_formula_sum   'Zr2 Hg2 H24 C4 N4 Cl12'
_cell_volume   701.37162310
_cell_formula_units_Z   2
loop_
 _symmetry_equiv_pos_site_id
 _symmetry_equiv_pos_as_xyz
  1  'x, y, z'
loop_
 _atom_site_type_symbol
 _atom_site_label
 _atom_site_symmetry_multiplicity
 _atom_site_fract_x
 _atom_site_fract_y
 _atom_site_fract_z
 _atom_site_occupancy
  C  C0  1  0.41722770  0.25034950  0.38637056  1
  C  C1  1  0.92875769  0.24183315  0.11316445  1
  C  C2  1  0.57124713  0.74189154  0.61313218  1
  C  C3  1  0.08279344  0.75040694  0.88631931  1
  N  N4  1  0.54548147  0.25311818  0.52341108  1
  N  N5  1  0.06129386  0.25622921  0.97582700  1
  N  N6  1  0.43872860  0.75620597  0.47578276  1
  N  N7  1  0.95448141  0.75300762  0.02336838  1
  H  H8  1  0.48653727  0.25801739  0.26545180  1
  H  H9  1  0.34713530  0.16629616  0.41731857  1
  H  H10  1  0.32877621  0.32502149  0.37874317  1
  H  H11  1  0.63539891  0.18620178  0.53403368  1
  H  H12  1  0.61145057  0.33376862  0.49850087  1
  H  H13  1  0.48862323  0.24350999  0.64343144  1
  H  H14  1  0.99383699  0.24093966  0.23460262  1
  H  H15  1  0.86115928  0.15825019  0.11854348  1
  H  H16  1  0.83872906  0.31643553  0.08328003  1
  H  H17  1  0.14789400  0.18594367  0.99872212  1
  H  H18  1  0.12990328  0.33387135  0.96563810  1
  H  H19  1  0.00629211  0.25905696  0.85611561  1
  H  H20  1  0.50615550  0.74106801  0.73453732  1
  H  H21  1  0.63885482  0.65829750  0.61861875  1
  H  H22  1  0.66127181  0.81649415  0.58316749  1
  H  H23  1  0.37010578  0.83383075  0.46551169  1
  H  H24  1  0.35214017  0.68589592  0.49873407  1
  H  H25  1  0.49374556  0.75898398  0.35609066  1
  H  H26  1  0.01351360  0.75798141  0.76540884  1
  H  H27  1  0.17103640  0.82519377  0.87869272  1
  H  H28  1  0.15311888  0.66644400  0.91727304  1
  H  H29  1  0.88830917  0.83357432  0.99846061  1
  H  H30  1  0.86474796  0.68596456  0.03398912  1
  H  H31  1  0.01131906  0.74347660  0.14337641  1
  Zr  Zr32  1  0.50702709  0.99855714  0.00153126  1
  Zr  Zr33  1  0.99296846  0.49857908  0.50153435  1
  Hg  Hg34  1  0.01123324  0.99918769  0.50100784  1
  Hg  Hg35  1  0.48876181  0.49916605  0.00101050  1
  Cl  Cl36  1  0.47808768  0.21767930  0.92457598  1
  Cl  Cl37  1  0.20608049  0.98249077  0.10830030  1
  Cl  Cl38  1  0.61029685  0.00931494  0.28837486  1
  Cl  Cl39  1  0.96469752  0.27950758  0.57951780  1
  Cl  Cl40  1  0.40756444  0.98806148  0.71322288  1
  Cl  Cl41  1  0.80758013  0.01642430  0.89085065  1
  Cl  Cl42  1  0.53524177  0.77948376  0.07946911  1
  Cl  Cl43  1  0.69241439  0.51649878  0.39084173  1
  Cl  Cl44  1  0.09241294  0.48802676  0.21323735  1
  Cl  Cl45  1  0.02194895  0.71769480  0.42452811  1
  Cl  Cl46  1  0.29391632  0.48248555  0.60829375  1
  Cl  Cl47  1  0.88972544  0.50936042  0.78838220  1
