# generated using pymatgen
data_ZrH12PtC2(NCl3)2
_symmetry_space_group_name_H-M   'P 1'
_cell_length_a   7.43452195
_cell_length_b   11.74607456
_cell_length_c   7.42733433
_cell_angle_alpha   82.68058308
_cell_angle_beta   105.49294590
_cell_angle_gamma   90.12263523
_symmetry_Int_Tables_number   1
_chemical_formula_structural   ZrH12PtC2(NCl3)2
_chemical_formula_sum   'Zr2 H24 Pt2 C4 N4 Cl12'
_cell_volume   619.59630892
_cell_formula_units_Z   2
loop_
 _symmetry_equiv_pos_site_id
 _symmetry_equiv_pos_as_xyz
  1  'x, y, z'
loop_
 _atom_site_type_symbol
 _atom_site_label
 _atom_site_symmetry_multiplicity
 _atom_site_fract_x
 _atom_site_fract_y
 _atom_site_fract_z
 _atom_site_occupancy
  C  C0  1  0.43098451  0.24604694  0.40995646  1
  C  C1  1  0.93129011  0.25103255  0.08262051  1
  C  C2  1  0.56901213  0.75398232  0.59007707  1
  C  C3  1  0.06872226  0.74896985  0.91736557  1
  N  N4  1  0.61351982  0.22798871  0.55360523  1
  N  N5  1  0.10029895  0.27519276  0.01582478  1
  N  N6  1  0.38646725  0.77198769  0.44643486  1
  N  N7  1  0.89970716  0.72481673  0.98415528  1
  H  H8  1  0.45774673  0.26094818  0.27093647  1
  H  H9  1  0.34779042  0.16989968  0.42368104  1
  H  H10  1  0.36022763  0.32154487  0.43530711  1
  H  H11  1  0.68422718  0.15466009  0.54087090  1
  H  H12  1  0.69971354  0.29585333  0.53918679  1
  H  H13  1  0.59356725  0.22012594  0.68854356  1
  H  H14  1  0.97319143  0.22568571  0.23546424  1
  H  H15  1  0.86288065  0.17910558  0.01519334  1
  H  H16  1  0.83800573  0.32743403  0.04566269  1
  H  H17  1  0.19221349  0.20463296  0.05698460  1
  H  H18  1  0.16704771  0.34729025  0.06493586  1
  H  H19  1  0.06932213  0.28925081  0.86915903  1
  H  H20  1  0.54226373  0.73908276  0.72910054  1
  H  H21  1  0.63981903  0.67849865  0.56474281  1
  H  H22  1  0.65215483  0.83015088  0.57632186  1
  H  H23  1  0.31570189  0.84529767  0.45915634  1
  H  H24  1  0.30033225  0.70409260  0.46088644  1
  H  H25  1  0.40640837  0.77985109  0.31149704  1
  H  H26  1  0.02679761  0.77432456  0.76450815  1
  H  H27  1  0.13713988  0.82089223  0.98478216  1
  H  H28  1  0.16199054  0.67256703  0.95429557  1
  H  H29  1  0.80781488  0.79537794  0.94302742  1
  H  H30  1  0.83295609  0.65272412  0.93505685  1
  H  H31  1  0.93070721  0.71075041  0.13084461  1
  Zr  Zr32  1  0.50001176  0.99999833  0.00002856  1
  Zr  Zr33  1  0.99997336  0.50000313  0.49998632  1
  Pt  Pt34  1  0.00002784  0.99999908  0.50002153  1
  Pt  Pt35  1  0.49998084  0.50000488  0.99998878  1
  Cl  Cl36  1  0.47573196  0.21195123  0.92103316  1
  Cl  Cl37  1  0.23183667  0.00807591  0.13441036  1
  Cl  Cl38  1  0.70061665  0.01984948  0.32681614  1
  Cl  Cl39  1  0.03323654  0.28736253  0.57118772  1
  Cl  Cl40  1  0.29943898  0.98015524  0.67322301  1
  Cl  Cl41  1  0.76818651  0.99192204  0.86563725  1
  Cl  Cl42  1  0.52428497  0.78804733  0.07901931  1
  Cl  Cl43  1  0.66620142  0.48659273  0.30456816  1
  Cl  Cl44  1  0.13605544  0.50090355  0.23327663  1
  Cl  Cl45  1  0.96673621  0.71264135  0.42879966  1
  Cl  Cl46  1  0.33376766  0.51341052  0.69540415  1
  Cl  Cl47  1  0.86391454  0.49910201  0.76671067  1
