# generated using pymatgen
data_ZrCdH12C2(NCl3)2
_symmetry_space_group_name_H-M   'P 1'
_cell_length_a   7.77479577
_cell_length_b   11.46402968
_cell_length_c   7.87229415
_cell_angle_alpha   79.23217060
_cell_angle_beta   90.00027005
_cell_angle_gamma   89.98820837
_symmetry_Int_Tables_number   1
_chemical_formula_structural   ZrCdH12C2(NCl3)2
_chemical_formula_sum   'Zr2 Cd2 H24 C4 N4 Cl12'
_cell_volume   689.30677703
_cell_formula_units_Z   2
loop_
 _symmetry_equiv_pos_site_id
 _symmetry_equiv_pos_as_xyz
  1  'x, y, z'
loop_
 _atom_site_type_symbol
 _atom_site_label
 _atom_site_symmetry_multiplicity
 _atom_site_fract_x
 _atom_site_fract_y
 _atom_site_fract_z
 _atom_site_occupancy
  C  C0  1  0.42021598  0.25135923  0.39880637  1
  C  C1  1  0.92003970  0.24864086  0.10121697  1
  C  C2  1  0.57983557  0.74864721  0.60119884  1
  C  C3  1  0.07990879  0.75136992  0.89880207  1
  N  N4  1  0.57271364  0.23623135  0.51480324  1
  N  N5  1  0.07261289  0.26380421  0.98533614  1
  N  N6  1  0.42732385  0.76376954  0.48522038  1
  N  N7  1  0.92734234  0.73619739  0.01469225  1
  H  H8  1  0.46477170  0.26117668  0.26489843  1
  H  H9  1  0.33797958  0.17288214  0.43182342  1
  H  H10  1  0.35144545  0.33117718  0.41744362  1
  H  H11  1  0.64329110  0.16218688  0.50106826  1
  H  H12  1  0.65145281  0.31084308  0.48736671  1
  H  H13  1  0.53723637  0.22647000  0.64466337  1
  H  H14  1  0.96450828  0.23878455  0.23516247  1
  H  H15  1  0.85135055  0.16883237  0.08248136  1
  H  H16  1  0.83775940  0.32711937  0.06818781  1
  H  H17  1  0.15140591  0.18919972  0.01279422  1
  H  H18  1  0.14309300  0.33784999  0.99917157  1
  H  H19  1  0.03723066  0.27359044  0.85544582  1
  H  H20  1  0.53529597  0.73881471  0.73511314  1
  H  H21  1  0.64861783  0.66883864  0.58253811  1
  H  H22  1  0.66205575  0.82713284  0.56818308  1
  H  H23  1  0.35674258  0.83781000  0.49897486  1
  H  H24  1  0.34859241  0.68915286  0.51266599  1
  H  H25  1  0.46277978  0.77353696  0.35535832  1
  H  H26  1  0.03543448  0.76122617  0.76485854  1
  H  H27  1  0.14859056  0.83118129  0.91753749  1
  H  H28  1  0.16219760  0.67289583  0.93182528  1
  H  H29  1  0.84854035  0.81079672  0.98724070  1
  H  H30  1  0.85686652  0.66214776  0.00086526  1
  H  H31  1  0.96273632  0.72641383  0.14458031  1
  Zr  Zr32  1  0.49997916  0.00000077  0.99999917  1
  Zr  Zr33  1  0.00002767  0.49999843  0.49999351  1
  Cd  Cd34  1  0.99996743  0.99999764  0.49999985  1
  Cd  Cd35  1  0.50005033  0.49999671  0.00000030  1
  Cl  Cl36  1  0.48583005  0.22040816  0.91644260  1
  Cl  Cl37  1  0.20452667  0.99652257  0.11815960  1
  Cl  Cl38  1  0.61516934  0.01590366  0.28732832  1
  Cl  Cl39  1  0.98599553  0.27959875  0.58362816  1
  Cl  Cl40  1  0.38479258  0.98409120  0.71266910  1
  Cl  Cl41  1  0.79543509  0.00348767  0.88184721  1
  Cl  Cl42  1  0.51411827  0.77959368  0.08355910  1
  Cl  Cl43  1  0.70456505  0.50347900  0.38185728  1
  Cl  Cl44  1  0.11520823  0.48404410  0.21266697  1
  Cl  Cl45  1  0.01406237  0.72039961  0.41636658  1
  Cl  Cl46  1  0.29548581  0.49652273  0.61813975  1
  Cl  Cl47  1  0.88484243  0.51595390  0.78731467  1
