# generated using pymatgen
data_ZrH12PdC2(NCl3)2
_symmetry_space_group_name_H-M   'P 1'
_cell_length_a   8.14169415
_cell_length_b   9.57383095
_cell_length_c   7.84975856
_cell_angle_alpha   86.86241621
_cell_angle_beta   90.04603302
_cell_angle_gamma   90.04026899
_symmetry_Int_Tables_number   1
_chemical_formula_structural   ZrH12PdC2(NCl3)2
_chemical_formula_sum   'Zr2 H24 Pd2 C4 N4 Cl12'
_cell_volume   610.94919765
_cell_formula_units_Z   2
loop_
 _symmetry_equiv_pos_site_id
 _symmetry_equiv_pos_as_xyz
  1  'x, y, z'
loop_
 _atom_site_type_symbol
 _atom_site_label
 _atom_site_symmetry_multiplicity
 _atom_site_fract_x
 _atom_site_fract_y
 _atom_site_fract_z
 _atom_site_occupancy
  C  C0  1  0.44153935  0.24469665  0.43297921  1
  C  C1  1  0.94206078  0.25546361  0.06675009  1
  C  C2  1  0.55845736  0.75531959  0.56699626  1
  C  C3  1  0.05795516  0.74453030  0.93331579  1
  N  N4  1  0.59391559  0.23586106  0.53707318  1
  N  N5  1  0.09421046  0.26401769  0.96253223  1
  N  N6  1  0.40606248  0.76412212  0.46293219  1
  N  N7  1  0.90580985  0.73599207  0.03753975  1
  H  H8  1  0.47584953  0.25733130  0.29838687  1
  H  H9  1  0.36942795  0.14951786  0.45673012  1
  H  H10  1  0.37132994  0.33530689  0.46956142  1
  H  H11  1  0.66209984  0.14795110  0.51270377  1
  H  H12  1  0.66747563  0.32206023  0.50472358  1
  H  H13  1  0.56983585  0.23447838  0.66686085  1
  H  H14  1  0.97664134  0.24277480  0.20130359  1
  H  H15  1  0.87138635  0.16498330  0.03020523  1
  H  H16  1  0.87029253  0.35077101  0.04302510  1
  H  H17  1  0.16755250  0.17773805  0.99490169  1
  H  H18  1  0.16278213  0.35186622  0.98665483  1
  H  H19  1  0.06981566  0.26532079  0.83275318  1
  H  H20  1  0.52416907  0.74269546  0.70159500  1
  H  H21  1  0.62867376  0.66471155  0.53042177  1
  H  H22  1  0.63055120  0.85050471  0.54321618  1
  H  H23  1  0.33787818  0.85203058  0.48729720  1
  H  H24  1  0.33251662  0.67791989  0.49531183  1
  H  H25  1  0.43011980  0.76548943  0.33314109  1
  H  H26  1  0.02337087  0.75719676  0.79876202  1
  H  H27  1  0.12862833  0.83501897  0.96983600  1
  H  H28  1  0.12972512  0.64922689  0.95706341  1
  H  H29  1  0.83247678  0.82227628  0.00517298  1
  H  H30  1  0.83722209  0.64814820  0.01342467  1
  H  H31  1  0.93021029  0.73469112  0.16731704  1
  Zr  Zr32  1  0.50000777  0.99997082  0.99997101  1
  Zr  Zr33  1  0.99996522  0.50000918  0.50003184  1
  Pd  Pd34  1  0.99980118  0.99999378  0.50016291  1
  Pd  Pd35  1  0.50024278  0.50011312  0.99942961  1
  Cl  Cl36  1  0.50823429  0.25998091  0.95438506  1
  Cl  Cl37  1  0.24842052  0.01038848  0.18090762  1
  Cl  Cl38  1  0.67907329  0.00375241  0.25514359  1
  Cl  Cl39  1  0.00815871  0.24001722  0.54537715  1
  Cl  Cl40  1  0.32093785  0.99623118  0.74480780  1
  Cl  Cl41  1  0.75162216  0.98959083  0.81908337  1
  Cl  Cl42  1  0.49174499  0.73998874  0.04562260  1
  Cl  Cl43  1  0.74834736  0.48942655  0.31872913  1
  Cl  Cl44  1  0.17904562  0.49658190  0.24518007  1
  Cl  Cl45  1  0.99183218  0.76000304  0.45469954  1
  Cl  Cl46  1  0.25160888  0.51058510  0.68134200  1
  Cl  Cl47  1  0.82093851  0.50343215  0.75493516  1
