# generated using pymatgen
data_BaH12RuC2(NCl3)2
_symmetry_space_group_name_H-M   'P 1'
_cell_length_a   7.74509852
_cell_length_b   10.79717214
_cell_length_c   7.35309144
_cell_angle_alpha   87.15190747
_cell_angle_beta   89.99733505
_cell_angle_gamma   90.01648085
_symmetry_Int_Tables_number   1
_chemical_formula_structural   BaH12RuC2(NCl3)2
_chemical_formula_sum   'Ba2 H24 Ru2 C4 N4 Cl12'
_cell_volume   614.14389708
_cell_formula_units_Z   2
loop_
 _symmetry_equiv_pos_site_id
 _symmetry_equiv_pos_as_xyz
  1  'x, y, z'
loop_
 _atom_site_type_symbol
 _atom_site_label
 _atom_site_symmetry_multiplicity
 _atom_site_fract_x
 _atom_site_fract_y
 _atom_site_fract_z
 _atom_site_occupancy
  C  C0  1  0.39808288  0.25084434  0.41302988  1
  C  C1  1  0.89882114  0.24914726  0.08765895  1
  C  C2  1  0.60191513  0.74916015  0.58698277  1
  C  C3  1  0.10118304  0.75085543  0.91235217  1
  N  N4  1  0.55635919  0.24680834  0.52509578  1
  N  N5  1  0.05658308  0.25311335  0.97478288  1
  N  N6  1  0.44363866  0.75319749  0.47491712  1
  N  N7  1  0.94342115  0.74688637  0.02522826  1
  H  H8  1  0.43485396  0.25057433  0.26943208  1
  H  H9  1  0.32535738  0.16625131  0.44597711  1
  H  H10  1  0.32231370  0.33245393  0.44262233  1
  H  H11  1  0.62672674  0.16943830  0.49271806  1
  H  H12  1  0.63201192  0.32508872  0.49699281  1
  H  H13  1  0.52810437  0.23957976  0.66455200  1
  H  H14  1  0.93625071  0.24934042  0.23104568  1
  H  H15  1  0.82269898  0.16761236  0.05837590  1
  H  H16  1  0.82614508  0.33382901  0.05522306  1
  H  H17  1  0.13224405  0.17480700  0.00265205  1
  H  H18  1  0.12721649  0.33046915  0.00673345  1
  H  H19  1  0.02778085  0.26028815  0.83548470  1
  H  H20  1  0.56514454  0.74943184  0.73058051  1
  H  H21  1  0.67768207  0.66754925  0.55739133  1
  H  H22  1  0.67464288  0.83375185  0.55403356  1
  H  H23  1  0.37327293  0.83056854  0.50729465  1
  H  H24  1  0.36798432  0.67491800  0.50302031  1
  H  H25  1  0.47189348  0.76042551  0.33546090  1
  H  H26  1  0.06375300  0.75066429  0.76896513  1
  H  H27  1  0.17730419  0.83239033  0.94163758  1
  H  H28  1  0.17386020  0.66617376  0.94478430  1
  H  H29  1  0.86775787  0.82519134  0.99735996  1
  H  H30  1  0.87279072  0.66952927  0.99327694  1
  H  H31  1  0.97222360  0.73971167  0.16452665  1
  Ru  Ru32  1  0.50000093  0.00000163  0.00000703  1
  Ru  Ru33  1  1.00000003  0.50000174  0.50000636  1
  Ba  Ba34  1  0.99999982  0.00000182  0.50000658  1
  Ba  Ba35  1  0.50000027  0.50000184  0.00000672  1
  Cl  Cl36  1  0.47873383  0.22255485  0.94472228  1
  Cl  Cl37  1  0.22758389  0.00405672  0.16378142  1
  Cl  Cl38  1  0.65848956  0.01332896  0.28585108  1
  Cl  Cl39  1  0.97828982  0.27746438  0.55556920  1
  Cl  Cl40  1  0.34151088  0.98667567  0.71416307  1
  Cl  Cl41  1  0.77241827  0.99594511  0.83623346  1
  Cl  Cl42  1  0.52126930  0.77744853  0.05529203  1
  Cl  Cl43  1  0.72770491  0.49586660  0.33605789  1
  Cl  Cl44  1  0.15864356  0.48668012  0.21421981  1
  Cl  Cl45  1  0.02170898  0.72253910  0.44444365  1
  Cl  Cl46  1  0.27229543  0.50413695  0.66395498  1
  Cl  Cl47  1  0.84135596  0.51332344  0.78579221  1
