# generated using pymatgen
data_TlH12RhC2(NCl3)2
_symmetry_space_group_name_H-M   'P 1'
_cell_length_a   7.76576493
_cell_length_b   10.89048615
_cell_length_c   7.41320991
_cell_angle_alpha   85.26236007
_cell_angle_beta   89.99086954
_cell_angle_gamma   90.02918037
_symmetry_Int_Tables_number   1
_chemical_formula_structural   TlH12RhC2(NCl3)2
_chemical_formula_sum   'Tl2 H24 Rh2 C4 N4 Cl12'
_cell_volume   624.81488026
_cell_formula_units_Z   2
loop_
 _symmetry_equiv_pos_site_id
 _symmetry_equiv_pos_as_xyz
  1  'x, y, z'
loop_
 _atom_site_type_symbol
 _atom_site_label
 _atom_site_symmetry_multiplicity
 _atom_site_fract_x
 _atom_site_fract_y
 _atom_site_fract_z
 _atom_site_occupancy
  C  C0  1  0.39773126  0.24992654  0.41143011  1
  C  C1  1  0.89854268  0.25009464  0.08930610  1
  C  C2  1  0.60226600  0.75007817  0.58858220  1
  C  C3  1  0.10146221  0.74990773  0.91070468  1
  N  N4  1  0.55514745  0.24574874  0.52420625  1
  N  N5  1  0.05547348  0.25416714  0.97573871  1
  N  N6  1  0.44484896  0.75425675  0.47580718  1
  N  N7  1  0.94453181  0.74583222  0.02427282  1
  H  H8  1  0.43538632  0.25195951  0.26912685  1
  H  H9  1  0.32379899  0.16611902  0.44672806  1
  H  H10  1  0.32300378  0.33114494  0.43799867  1
  H  H11  1  0.62739578  0.16976645  0.49737687  1
  H  H12  1  0.63000244  0.32427676  0.49479871  1
  H  H13  1  0.52601701  0.23803006  0.66258379  1
  H  H14  1  0.93687001  0.24803141  0.23141765  1
  H  H15  1  0.82344258  0.16890826  0.06315839  1
  H  H16  1  0.82472136  0.33394670  0.05448011  1
  H  H17  1  0.13024310  0.17564333  0.00486853  1
  H  H18  1  0.12802161  0.33015292  0.00205554  1
  H  H19  1  0.02575944  0.26183394  0.83748215  1
  H  H20  1  0.56461144  0.74804703  0.73088589  1
  H  H21  1  0.67699118  0.66885840  0.56201517  1
  H  H22  1  0.67620008  0.83388427  0.55328238  1
  H  H23  1  0.37260223  0.83023984  0.50263608  1
  H  H24  1  0.36999334  0.67572956  0.50521438  1
  H  H25  1  0.47397980  0.76197523  0.33742906  1
  H  H26  1  0.06313470  0.75197254  0.76859334  1
  H  H27  1  0.17656148  0.83109403  0.93685490  1
  H  H28  1  0.17528472  0.66605563  0.94552801  1
  H  H29  1  0.86975957  0.82435503  0.99514368  1
  H  H30  1  0.87198622  0.66984529  0.99795481  1
  H  H31  1  0.97424554  0.73816550  0.16252898  1
  Rh  Rh32  1  0.50000213  0.00000214  0.00000748  1
  Rh  Rh33  1  0.99999903  0.50000164  0.50000576  1
  Tl  Tl34  1  0.99999981  0.00000207  0.50000704  1
  Tl  Tl35  1  0.50000025  0.50000243  0.00000520  1
  Cl  Cl36  1  0.47747645  0.21674266  0.94269206  1
  Cl  Cl37  1  0.23026725  0.00048852  0.15142133  1
  Cl  Cl38  1  0.64276346  0.01403389  0.28154802  1
  Cl  Cl39  1  0.97699622  0.28326100  0.55758987  1
  Cl  Cl40  1  0.35723958  0.98597150  0.71846736  1
  Cl  Cl41  1  0.76973728  0.99951399  0.84859409  1
  Cl  Cl42  1  0.52252848  0.78326176  0.05732306  1
  Cl  Cl43  1  0.73045290  0.49939584  0.34836796  1
  Cl  Cl44  1  0.14300829  0.48602015  0.21855500  1
  Cl  Cl45  1  0.02300104  0.71674223  0.44242261  1
  Cl  Cl46  1  0.26954530  0.50060773  0.65164335  1
  Cl  Cl47  1  0.85698968  0.51398310  0.78145635  1
