# generated using pymatgen
data_SbH12C2(I2N)3
_symmetry_space_group_name_H-M   'P 1'
_cell_length_a   8.61538755
_cell_length_b   11.29794977
_cell_length_c   8.48167959
_cell_angle_alpha   91.25024716
_cell_angle_beta   93.49460325
_cell_angle_gamma   91.50931985
_symmetry_Int_Tables_number   1
_chemical_formula_structural   SbH12C2(I2N)3
_chemical_formula_sum   'Sb2 H24 C4 I12 N6'
_cell_volume   823.52654259
_cell_formula_units_Z   2
loop_
 _symmetry_equiv_pos_site_id
 _symmetry_equiv_pos_as_xyz
  1  'x, y, z'
loop_
 _atom_site_type_symbol
 _atom_site_label
 _atom_site_symmetry_multiplicity
 _atom_site_fract_x
 _atom_site_fract_y
 _atom_site_fract_z
 _atom_site_occupancy
  C  C0  1  0.46011731  0.25587156  0.46395445  1
  C  C1  1  0.95852945  0.24077277  0.07176447  1
  C  C2  1  0.54038771  0.74914284  0.55412989  1
  C  C3  1  0.07307501  0.74583129  0.94356854  1
  N  N4  1  0.59827071  0.23809155  0.57359967  1
  N  N5  1  0.07812248  0.25330098  0.95465814  1
  N  N6  1  0.41232365  0.74020324  0.42853899  1
  N  N7  1  0.93527579  0.75671649  0.03874063  1
  H  H8  1  0.49649837  0.25382402  0.34246774  1
  H  H9  1  0.37515334  0.18379080  0.47843081  1
  H  H10  1  0.40947177  0.34089751  0.49264437  1
  H  H11  1  0.65509580  0.16191792  0.54205096  1
  H  H12  1  0.67871757  0.30813152  0.57298266  1
  H  H13  1  0.56837647  0.22984189  0.69014343  1
  H  H14  1  0.01637719  0.23764665  0.19003045  1
  H  H15  1  0.89005803  0.15905221  0.04537338  1
  H  H16  1  0.88319967  0.31744968  0.06542646  1
  H  H17  1  0.16237503  0.18258256  0.95793123  1
  H  H18  1  0.14028141  0.33227082  0.97705336  1
  H  H19  1  0.02996660  0.25599611  0.83960092  1
  H  H20  1  0.49244951  0.77207870  0.66706821  1
  H  H21  1  0.59655595  0.66348840  0.56245541  1
  H  H22  1  0.62397379  0.81791501  0.52250701  1
  H  H23  1  0.35525195  0.81964565  0.41198960  1
  H  H24  1  0.32952802  0.67585286  0.45273891  1
  H  H25  1  0.45296255  0.71886185  0.31828358  1
  H  H26  1  0.03276819  0.73498102  0.81906410  1
  H  H27  1  0.14701014  0.82565055  0.96231179  1
  H  H28  1  0.13625195  0.66766282  0.98151740  1
  H  H29  1  0.86995899  0.82862168  0.00258638  1
  H  H30  1  0.86485724  0.68087649  0.02508123  1
  H  H31  1  0.96568957  0.76571723  0.15841837  1
  N  N32  1  0.31562298  0.08732924  0.95891087  1
  N  N33  1  0.93751380  0.57757005  0.30442321  1
  Sb  Sb34  1  0.98702722  0.00073342  0.50428882  1
  Sb  Sb35  1  0.49058604  0.50564939  0.99104647  1
  I  I36  1  0.49895735  0.21685350  0.98336656  1
  I  I37  1  0.21300689  0.99078809  0.24956762  1
  I  I38  1  0.71136527  0.00776465  0.29579197  1
  I  I39  1  0.01393999  0.25508459  0.53026498  1
  I  I40  1  0.30413204  0.00134048  0.73378306  1
  I  I41  1  0.79693844  0.98823430  0.79193161  1
  I  I42  1  0.51491743  0.75823678  0.02665551  1
  I  I43  1  0.71825273  0.49161315  0.30908029  1
  I  I44  1  0.22873180  0.48934655  0.21156811  1
  I  I45  1  0.97571852  0.71320466  0.48097374  1
  I  I46  1  0.28106172  0.50829992  0.71253909  1
  I  I47  1  0.78332031  0.49334486  0.80899211  1
