# generated using pymatgen
data_H12RhAuC2(NCl3)2
_symmetry_space_group_name_H-M   'P 1'
_cell_length_a   7.43274333
_cell_length_b   11.66996755
_cell_length_c   7.11641119
_cell_angle_alpha   84.73764185
_cell_angle_beta   106.07821553
_cell_angle_gamma   89.71286256
_symmetry_Int_Tables_number   1
_chemical_formula_structural   H12RhAuC2(NCl3)2
_chemical_formula_sum   'H24 Rh2 Au2 C4 N4 Cl12'
_cell_volume   590.33317277
_cell_formula_units_Z   2
loop_
 _symmetry_equiv_pos_site_id
 _symmetry_equiv_pos_as_xyz
  1  'x, y, z'
loop_
 _atom_site_type_symbol
 _atom_site_label
 _atom_site_symmetry_multiplicity
 _atom_site_fract_x
 _atom_site_fract_y
 _atom_site_fract_z
 _atom_site_occupancy
  C  C0  1  0.42476677  0.26315652  0.41686798  1
  C  C1  1  0.91718226  0.24343475  0.06609051  1
  C  C2  1  0.57523051  0.73684711  0.58314487  1
  C  C3  1  0.08282302  0.75656838  0.93392386  1
  N  N4  1  0.60633285  0.22707971  0.55920457  1
  N  N5  1  0.09248442  0.27217398  0.01568458  1
  N  N6  1  0.39366462  0.77292277  0.44080649  1
  N  N7  1  0.90751853  0.72782920  0.98432489  1
  H  H8  1  0.44674182  0.27792258  0.27089122  1
  H  H9  1  0.32643890  0.19412310  0.42098426  1
  H  H10  1  0.37286548  0.34177453  0.45886505  1
  H  H11  1  0.65226202  0.14865417  0.52963823  1
  H  H12  1  0.71107319  0.28479789  0.55327828  1
  H  H13  1  0.59047623  0.21739147  0.70159679  1
  H  H14  1  0.94746049  0.22524375  0.22542580  1
  H  H15  1  0.86041805  0.16743890  0.99447107  1
  H  H16  1  0.81894860  0.31720020  0.01725001  1
  H  H17  1  0.18870329  0.20337584  0.06038388  1
  H  H18  1  0.14584397  0.34577000  0.08011002  1
  H  H19  1  0.06967863  0.28860244  0.86385058  1
  H  H20  1  0.55325335  0.72208279  0.72912187  1
  H  H21  1  0.62713218  0.65822839  0.54115161  1
  H  H22  1  0.67355809  0.80588019  0.57902816  1
  H  H23  1  0.34773521  0.85134893  0.47036893  1
  H  H24  1  0.28892472  0.71520504  0.44673173  1
  H  H25  1  0.40952433  0.78261009  0.29841408  1
  H  H26  1  0.05254872  0.77475859  0.77458883  1
  H  H27  1  0.13958574  0.83256428  0.00554351  1
  H  H28  1  0.18105649  0.68280265  0.98276764  1
  H  H29  1  0.81130053  0.79662834  0.93962419  1
  H  H30  1  0.85415935  0.65423393  0.91989776  1
  H  H31  1  0.93032096  0.71140065  0.13615823  1
  Rh  Rh32  1  0.50000233  0.00000255  0.00000707  1
  Rh  Rh33  1  0.99999905  0.50000196  0.50000545  1
  Au  Au34  1  0.00000248  0.00000165  0.50000801  1
  Au  Au35  1  0.49999918  0.50000151  0.00000608  1
  Cl  Cl36  1  0.47871225  0.20315979  0.94326328  1
  Cl  Cl37  1  0.24339208  0.01139407  0.13554915  1
  Cl  Cl38  1  0.68258004  0.00771698  0.33457399  1
  Cl  Cl39  1  0.01932471  0.29673435  0.55529032  1
  Cl  Cl40  1  0.31742508  0.99228598  0.66544113  1
  Cl  Cl41  1  0.75661264  0.98860954  0.86446528  1
  Cl  Cl42  1  0.52129273  0.79684360  0.05675182  1
  Cl  Cl43  1  0.67415818  0.49076245  0.32519947  1
  Cl  Cl44  1  0.12767056  0.50139212  0.23104337  1
  Cl  Cl45  1  0.98067256  0.70326889  0.44472102  1
  Cl  Cl46  1  0.32583946  0.50924087  0.67481279  1
  Cl  Cl47  1  0.87232708  0.49861081  0.76896891  1
