# generated using pymatgen
data_InH12RhC2(NCl3)2
_symmetry_space_group_name_H-M   'P 1'
_cell_length_a   7.21137193
_cell_length_b   10.46521337
_cell_length_c   7.83279699
_cell_angle_alpha   84.60401392
_cell_angle_beta   90.00390348
_cell_angle_gamma   90.00309502
_symmetry_Int_Tables_number   1
_chemical_formula_structural   InH12RhC2(NCl3)2
_chemical_formula_sum   'In2 H24 Rh2 C4 N4 Cl12'
_cell_volume   588.51023829
_cell_formula_units_Z   2
loop_
 _symmetry_equiv_pos_site_id
 _symmetry_equiv_pos_as_xyz
  1  'x, y, z'
loop_
 _atom_site_type_symbol
 _atom_site_label
 _atom_site_symmetry_multiplicity
 _atom_site_fract_x
 _atom_site_fract_y
 _atom_site_fract_z
 _atom_site_occupancy
  C  C0  1  0.48351698  0.23987263  0.42050375  1
  C  C1  1  0.98349559  0.26012753  0.07948364  1
  C  C2  1  0.51654001  0.76013702  0.57948381  1
  C  C3  1  0.01645538  0.73989176  0.92051832  1
  N  N4  1  0.54837151  0.25744291  0.59576381  1
  N  N5  1  0.04837265  0.24256300  0.90423858  1
  N  N6  1  0.45160935  0.74254725  0.40426018  1
  N  N7  1  0.95164682  0.75742832  0.09579461  1
  H  H8  1  0.60354914  0.23953496  0.33581751  1
  H  H9  1  0.41042705  0.14822154  0.42243607  1
  H  H10  1  0.39015352  0.31894357  0.37850594  1
  H  H11  1  0.62748711  0.18014980  0.64778894  1
  H  H12  1  0.62837832  0.33962164  0.60038960  1
  H  H13  1  0.43960216  0.26563082  0.67951741  1
  H  H14  1  0.10347872  0.26046060  0.16421056  1
  H  H15  1  0.89009406  0.18105163  0.12144242  1
  H  H16  1  0.91039671  0.35178114  0.07752611  1
  H  H17  1  0.12839601  0.16037698  0.89964280  1
  H  H18  1  0.12753840  0.31985504  0.85225363  1
  H  H19  1  0.93965954  0.23438271  0.82044526  1
  H  H20  1  0.39656902  0.76045814  0.66422821  1
  H  H21  1  0.60995587  0.68106865  0.62143971  1
  H  H22  1  0.58962153  0.85179172  0.57751448  1
  H  H23  1  0.37243339  0.81983865  0.35227411  1
  H  H24  1  0.37161215  0.66036393  0.39966893  1
  H  H25  1  0.56031905  0.73438889  0.32044094  1
  H  H26  1  0.89643281  0.73952737  0.83584314  1
  H  H27  1  0.10979018  0.81899890  0.87852630  1
  H  H28  1  0.08960994  0.64826355  0.92243480  1
  H  H29  1  0.87158841  0.83959418  0.10043348  1
  H  H30  1  0.87254376  0.68011554  0.14780701  1
  H  H31  1  0.06039912  0.76563608  0.17953736  1
  Rh  Rh32  1  0.49999589  0.00000023  0.00000274  1
  Rh  Rh33  1  0.00000112  0.50000084  0.50001167  1
  In  In34  1  0.99999255  0.00000297  0.50000544  1
  In  In35  1  0.50000627  0.50000024  0.00001107  1
  Cl  Cl36  1  0.49209116  0.22823575  0.00058822  1
  Cl  Cl37  1  0.24140760  0.98237133  0.19131862  1
  Cl  Cl38  1  0.70394168  0.98178459  0.24196666  1
  Cl  Cl39  1  0.99208467  0.27176345  0.49942541  1
  Cl  Cl40  1  0.29605782  0.01820834  0.75803021  1
  Cl  Cl41  1  0.75858138  0.01764000  0.80868575  1
  Cl  Cl42  1  0.50789900  0.77176393  0.99942983  1
  Cl  Cl43  1  0.74140175  0.51763517  0.30869111  1
  Cl  Cl44  1  0.20393282  0.51820719  0.25804400  1
  Cl  Cl45  1  0.00792320  0.72823864  0.50060400  1
  Cl  Cl46  1  0.25859703  0.48237328  0.69133573  1
  Cl  Cl47  1  0.79606557  0.48178586  0.74197469  1
