# generated using pymatgen
data_AgH12RhC2(NCl3)2
_symmetry_space_group_name_H-M   'P 1'
_cell_length_a   7.32097651
_cell_length_b   10.71935381
_cell_length_c   7.17985164
_cell_angle_alpha   86.07257683
_cell_angle_beta   90.10483577
_cell_angle_gamma   90.05025617
_symmetry_Int_Tables_number   1
_chemical_formula_structural   AgH12RhC2(NCl3)2
_chemical_formula_sum   'Ag2 H24 Rh2 C4 N4 Cl12'
_cell_volume   562.12273053
_cell_formula_units_Z   2
loop_
 _symmetry_equiv_pos_site_id
 _symmetry_equiv_pos_as_xyz
  1  'x, y, z'
loop_
 _atom_site_type_symbol
 _atom_site_label
 _atom_site_symmetry_multiplicity
 _atom_site_fract_x
 _atom_site_fract_y
 _atom_site_fract_z
 _atom_site_occupancy
  C  C0  1  0.39945368  0.24881323  0.40761572  1
  C  C1  1  0.90067272  0.25124501  0.09285889  1
  C  C2  1  0.60054167  0.75118993  0.59239785  1
  C  C3  1  0.09933504  0.74875923  0.90715097  1
  N  N4  1  0.56362967  0.24405515  0.52611584  1
  N  N5  1  0.06404827  0.25588747  0.97382819  1
  N  N6  1  0.43636498  0.75594932  0.47389860  1
  N  N7  1  0.93595863  0.74411275  0.02618057  1
  H  H8  1  0.44155574  0.25423910  0.26181096  1
  H  H9  1  0.32017673  0.16393634  0.43815862  1
  H  H10  1  0.32041222  0.33069011  0.43758368  1
  H  H11  1  0.64143149  0.16687465  0.50065321  1
  H  H12  1  0.64285708  0.32309044  0.49778998  1
  H  H13  1  0.53105543  0.23807793  0.66824083  1
  H  H14  1  0.94377503  0.24582256  0.23850597  1
  H  H15  1  0.82109233  0.16940111  0.06324548  1
  H  H16  1  0.82152307  0.33616879  0.06261329  1
  H  H17  1  0.14317585  0.17682487  0.00199905  1
  H  H18  1  0.14226370  0.33306460  0.99888528  1
  H  H19  1  0.03058212  0.26181438  0.83178870  1
  H  H20  1  0.55844038  0.74576326  0.73820283  1
  H  H21  1  0.67958227  0.66931297  0.56242832  1
  H  H22  1  0.67981923  0.83606667  0.56185584  1
  H  H23  1  0.35856404  0.83313006  0.49936212  1
  H  H24  1  0.35713690  0.67691430  0.50222397  1
  H  H25  1  0.46893905  0.76192687  0.33177356  1
  H  H26  1  0.05623409  0.75418479  0.76150362  1
  H  H27  1  0.17891427  0.83060266  0.93676948  1
  H  H28  1  0.17848571  0.66383529  0.93739290  1
  H  H29  1  0.85682896  0.82317469  0.99801083  1
  H  H30  1  0.85774589  0.66693501  0.00111943  1
  H  H31  1  0.96942294  0.73818463  0.16822011  1
  Rh  Rh32  1  0.50000315  0.00000192  0.00000763  1
  Rh  Rh33  1  0.99999924  0.50000100  0.50000597  1
  Ag  Ag34  1  0.99999593  0.00000604  0.49999969  1
  Ag  Ag35  1  0.49999734  0.50000467  0.00001381  1
  Cl  Cl36  1  0.48255719  0.22167666  0.94785009  1
  Cl  Cl37  1  0.21973862  0.99669095  0.17842862  1
  Cl  Cl38  1  0.67327056  0.00541090  0.28578940  1
  Cl  Cl39  1  0.98200208  0.27835080  0.55236219  1
  Cl  Cl40  1  0.32673429  0.99459433  0.71422843  1
  Cl  Cl41  1  0.78026650  0.00331116  0.82158714  1
  Cl  Cl42  1  0.51745084  0.77832675  0.05216672  1
  Cl  Cl43  1  0.71936975  0.50318534  0.32098547  1
  Cl  Cl44  1  0.17301001  0.49483870  0.21470645  1
  Cl  Cl45  1  0.01799322  0.72165041  0.44765003  1
  Cl  Cl46  1  0.28062794  0.49681624  0.67902674  1
  Cl  Cl47  1  0.82698788  0.50516423  0.78530351  1
