# generated using pymatgen
data_HgH12PdC2(NCl3)2
_symmetry_space_group_name_H-M   'P 1'
_cell_length_a   7.73889309
_cell_length_b   10.64697454
_cell_length_c   7.66388183
_cell_angle_alpha   88.09913758
_cell_angle_beta   90.00549933
_cell_angle_gamma   90.01428456
_symmetry_Int_Tables_number   1
_chemical_formula_structural   HgH12PdC2(NCl3)2
_chemical_formula_sum   'Hg2 H24 Pd2 C4 N4 Cl12'
_cell_volume   631.12414650
_cell_formula_units_Z   2
loop_
 _symmetry_equiv_pos_site_id
 _symmetry_equiv_pos_as_xyz
  1  'x, y, z'
loop_
 _atom_site_type_symbol
 _atom_site_label
 _atom_site_symmetry_multiplicity
 _atom_site_fract_x
 _atom_site_fract_y
 _atom_site_fract_z
 _atom_site_occupancy
  C  C0  1  0.42300625  0.24675103  0.41578238  1
  C  C1  1  0.92353016  0.25331297  0.08433845  1
  C  C2  1  0.57699306  0.75325172  0.58422919  1
  C  C3  1  0.07647292  0.74669147  0.91567340  1
  N  N4  1  0.57511828  0.24599265  0.53327652  1
  N  N5  1  0.07537224  0.25394403  0.96653431  1
  N  N6  1  0.42488025  0.75401313  0.46673581  1
  N  N7  1  0.92463125  0.74605618  0.03347811  1
  H  H8  1  0.46804553  0.25251595  0.28047399  1
  H  H9  1  0.35044151  0.15987629  0.43826790  1
  H  H10  1  0.34270246  0.32780335  0.44439193  1
  H  H11  1  0.65439081  0.17052084  0.50746927  1
  H  H12  1  0.64786730  0.32707712  0.51055974  1
  H  H13  1  0.54108042  0.23918774  0.66518904  1
  H  H14  1  0.96891104  0.24751670  0.21956416  1
  H  H15  1  0.84300253  0.17229604  0.05594689  1
  H  H16  1  0.85108624  0.34021949  0.06203368  1
  H  H17  1  0.14802210  0.17285429  0.98912757  1
  H  H18  1  0.15479811  0.32940631  0.99209282  1
  H  H19  1  0.04101529  0.26074038  0.83466403  1
  H  H20  1  0.53195288  0.74748798  0.71953832  1
  H  H21  1  0.65729397  0.67219846  0.55562076  1
  H  H22  1  0.64956021  0.84012554  0.56174410  1
  H  H23  1  0.34561084  0.82948523  0.49254197  1
  H  H24  1  0.35212981  0.67292916  0.48945149  1
  H  H25  1  0.45891960  0.76081697  0.33482237  1
  H  H26  1  0.03109246  0.75248791  0.78044820  1
  H  H27  1  0.15699753  0.82770977  0.94406692  1
  H  H28  1  0.14892045  0.65978616  0.93797711  1
  H  H29  1  0.85197814  0.82714481  0.01088578  1
  H  H30  1  0.84520748  0.67059255  0.00791758  1
  H  H31  1  0.95898750  0.73925953  0.16534770  1
  Pd  Pd32  1  0.50000174  0.00000145  0.00000649  1
  Pd  Pd33  1  0.99999965  0.50000170  0.50000648  1
  Hg  Hg34  1  -0.00000066  0.00000204  0.50000822  1
  Hg  Hg35  1  0.49999935  0.50000187  0.00000632  1
  Cl  Cl36  1  0.48808893  0.21601052  0.93827968  1
  Cl  Cl37  1  0.23981518  0.00839297  0.15552788  1
  Cl  Cl38  1  0.74702759  0.00989216  0.33225952  1
  Cl  Cl39  1  0.98779309  0.28400079  0.56175935  1
  Cl  Cl40  1  0.25297272  0.99011213  0.66775464  1
  Cl  Cl41  1  0.76018906  0.99160947  0.84448643  1
  Cl  Cl42  1  0.51191453  0.78399235  0.06173273  1
  Cl  Cl43  1  0.73984825  0.49158654  0.34437640  1
  Cl  Cl44  1  0.24700533  0.49015204  0.16765947  1
  Cl  Cl45  1  0.01220605  0.71600258  0.43825339  1
  Cl  Cl46  1  0.26015148  0.50841699  0.65563571  1
  Cl  Cl47  1  0.75299285  0.50985095  0.83235238  1
