# generated using pymatgen
data_H12PdPtC2(NCl3)2
_symmetry_space_group_name_H-M   'P 1'
_cell_length_a   8.49058682
_cell_length_b   8.40447755
_cell_length_c   8.28628683
_cell_angle_alpha   90.08398593
_cell_angle_beta   90.00734454
_cell_angle_gamma   89.98255588
_symmetry_Int_Tables_number   1
_chemical_formula_structural   H12PdPtC2(NCl3)2
_chemical_formula_sum   'H24 Pd2 Pt2 C4 N4 Cl12'
_cell_volume   591.30002954
_cell_formula_units_Z   2
loop_
 _symmetry_equiv_pos_site_id
 _symmetry_equiv_pos_as_xyz
  1  'x, y, z'
loop_
 _atom_site_type_symbol
 _atom_site_label
 _atom_site_symmetry_multiplicity
 _atom_site_fract_x
 _atom_site_fract_y
 _atom_site_fract_z
 _atom_site_occupancy
  C  C0  1  0.48236570  0.25041845  0.38011473  1
  C  C1  1  0.98198106  0.25070231  0.11985475  1
  C  C2  1  0.51770420  0.74954783  0.61983420  1
  C  C3  1  0.01792071  0.74933820  0.88005687  1
  N  N4  1  0.53888951  0.24993713  0.54932305  1
  N  N5  1  0.03892323  0.24973653  0.95081010  1
  N  N6  1  0.46121583  0.75005062  0.45061567  1
  N  N7  1  0.96099530  0.75027804  0.04911001  1
  H  H8  1  0.58408105  0.25108493  0.29942369  1
  H  H9  1  0.40986077  0.14479885  0.35995141  1
  H  H10  1  0.41014562  0.35638705  0.36115668  1
  H  H11  1  0.60834327  0.15176892  0.57382924  1
  H  H12  1  0.60857243  0.34790771  0.57410604  1
  H  H13  1  0.44492433  0.25033454  0.62918997  1
  H  H14  1  0.08350942  0.25057199  0.20082896  1
  H  H15  1  0.90960977  0.14500820  0.13952754  1
  H  H16  1  0.90954557  0.35659988  0.13890742  1
  H  H17  1  0.10857078  0.15143380  0.92712463  1
  H  H18  1  0.10856138  0.34755793  0.92564585  1
  H  H19  1  0.94519352  0.24888099  0.87063439  1
  H  H20  1  0.41597454  0.74888845  0.70050422  1
  H  H21  1  0.58990498  0.64356727  0.63879130  1
  H  H22  1  0.59021637  0.85515853  0.64001585  1
  H  H23  1  0.39175836  0.84821163  0.42609172  1
  H  H24  1  0.39154979  0.65208197  0.42577507  1
  H  H25  1  0.55519657  0.74967626  0.37076764  1
  H  H26  1  0.91638257  0.74945311  0.79909403  1
  H  H27  1  0.09026845  0.85504803  0.86037654  1
  H  H28  1  0.09037886  0.64345800  0.86098089  1
  H  H29  1  0.89134822  0.84858010  0.07279895  1
  H  H30  1  0.89136038  0.65244702  0.07424068  1
  H  H31  1  0.05473742  0.75112193  0.12927032  1
  Pd  Pd32  1  0.49989490  0.00001328  0.00009891  1
  Pd  Pd33  1  0.00010682  0.49998184  0.50010522  1
  Pt  Pt34  1  0.00009867  0.99998637  0.50009672  1
  Pt  Pt35  1  0.49990879  0.50001701  0.00010386  1
  Cl  Cl36  1  0.41481274  0.25227914  0.92055068  1
  Cl  Cl37  1  0.26777138  0.97205269  0.14463955  1
  Cl  Cl38  1  0.76869778  0.97155881  0.35475665  1
  Cl  Cl39  1  0.91494270  0.24776720  0.57965116  1
  Cl  Cl40  1  0.23149910  0.02842597  0.64543291  1
  Cl  Cl41  1  0.73201773  0.02798450  0.85555328  1
  Cl  Cl42  1  0.58504234  0.74775534  0.07961598  1
  Cl  Cl43  1  0.76799355  0.52828999  0.35564660  1
  Cl  Cl44  1  0.26858456  0.52867911  0.14545230  1
  Cl  Cl45  1  0.08521476  0.75220160  0.42051614  1
  Cl  Cl46  1  0.23221187  0.47169100  0.64456990  1
  Cl  Cl47  1  0.73123609  0.47135822  0.85475430  1
