# generated using pymatgen
data_HfH12PdC2(NCl3)2
_symmetry_space_group_name_H-M   'P 1'
_cell_length_a   8.21617006
_cell_length_b   9.50176947
_cell_length_c   7.82461299
_cell_angle_alpha   90.56678351
_cell_angle_beta   89.98208625
_cell_angle_gamma   89.96153855
_symmetry_Int_Tables_number   1
_chemical_formula_structural   HfH12PdC2(NCl3)2
_chemical_formula_sum   'Hf2 H24 Pd2 C4 N4 Cl12'
_cell_volume   610.82303393
_cell_formula_units_Z   2
loop_
 _symmetry_equiv_pos_site_id
 _symmetry_equiv_pos_as_xyz
  1  'x, y, z'
loop_
 _atom_site_type_symbol
 _atom_site_label
 _atom_site_symmetry_multiplicity
 _atom_site_fract_x
 _atom_site_fract_y
 _atom_site_fract_z
 _atom_site_occupancy
  C  C0  1  0.45391219  0.24475947  0.45691577  1
  C  C1  1  0.95406834  0.25488300  0.04349851  1
  C  C2  1  0.54613162  0.75527540  0.54309488  1
  C  C3  1  0.04593098  0.74508572  0.95644527  1
  N  N4  1  0.60604911  0.26822457  0.55551602  1
  N  N5  1  0.10638580  0.23205753  0.94481268  1
  N  N6  1  0.39397928  0.73175056  0.44453371  1
  N  N7  1  0.89365045  0.76795730  0.05518757  1
  H  H8  1  0.48530588  0.22669109  0.32268496  1
  H  H9  1  0.39239530  0.15258518  0.50847638  1
  H  H10  1  0.37577346  0.33722161  0.47024939  1
  H  H11  1  0.68383247  0.18341641  0.53899951  1
  H  H12  1  0.66827579  0.35645858  0.51448423  1
  H  H13  1  0.58344839  0.27896747  0.68553432  1
  H  H14  1  0.98532849  0.27316169  0.17768792  1
  H  H15  1  0.87663159  0.16209582  0.03028186  1
  H  H16  1  0.89185983  0.34679216  0.99192090  1
  H  H17  1  0.16907613  0.14394372  0.98565305  1
  H  H18  1  0.18366894  0.31707808  0.96156205  1
  H  H19  1  0.08389215  0.22143256  0.81477497  1
  H  H20  1  0.51475903  0.77336474  0.67732578  1
  H  H21  1  0.62429790  0.66283145  0.52977148  1
  H  H22  1  0.60760400  0.84745339  0.49148895  1
  H  H23  1  0.31616607  0.81653705  0.46105581  1
  H  H24  1  0.33180841  0.64350587  0.48561138  1
  H  H25  1  0.41655536  0.72099502  0.31451737  1
  H  H26  1  0.01462007  0.72680415  0.82227126  1
  H  H27  1  0.12340183  0.83785370  0.96962448  1
  H  H28  1  0.10812205  0.65316552  0.00801084  1
  H  H29  1  0.83097624  0.85607395  0.01434260  1
  H  H30  1  0.81634281  0.68294812  0.03849339  1
  H  H31  1  0.91619649  0.77860094  0.18520991  1
  Pd  Pd32  1  0.49995145  0.00003774  0.99996978  1
  Pd  Pd33  1  0.99989149  0.49999883  0.50029405  1
  Hf  Hf34  1  0.99998502  0.99997977  0.50000362  1
  Hf  Hf35  1  0.49996779  0.50003893  0.00000903  1
  Cl  Cl36  1  0.51881904  0.24299113  0.96275742  1
  Cl  Cl37  1  0.18177192  0.00666576  0.25183204  1
  Cl  Cl38  1  0.76135486  0.02628171  0.31484811  1
  Cl  Cl39  1  0.01817335  0.25702248  0.53784608  1
  Cl  Cl40  1  0.23863182  0.97370281  0.68513574  1
  Cl  Cl41  1  0.81817523  0.99326971  0.74815466  1
  Cl  Cl42  1  0.48112531  0.75708202  0.03723773  1
  Cl  Cl43  1  0.68146535  0.49369908  0.24833325  1
  Cl  Cl44  1  0.26120055  0.47383045  0.18513276  1
  Cl  Cl45  1  0.98183321  0.74293060  0.46214493  1
  Cl  Cl46  1  0.31848335  0.50635293  0.75166186  1
  Cl  Cl47  1  0.73874751  0.52622256  0.81489838  1
