# generated using pymatgen
data_BaH12PdC2(NCl3)2
_symmetry_space_group_name_H-M   'P 1'
_cell_length_a   7.33950197
_cell_length_b   12.56753568
_cell_length_c   7.34208158
_cell_angle_alpha   91.52539041
_cell_angle_beta   89.99989922
_cell_angle_gamma   89.99966374
_symmetry_Int_Tables_number   1
_chemical_formula_structural   BaH12PdC2(NCl3)2
_chemical_formula_sum   'Ba2 H24 Pd2 C4 N4 Cl12'
_cell_volume   676.98959593
_cell_formula_units_Z   2
loop_
 _symmetry_equiv_pos_site_id
 _symmetry_equiv_pos_as_xyz
  1  'x, y, z'
loop_
 _atom_site_type_symbol
 _atom_site_label
 _atom_site_symmetry_multiplicity
 _atom_site_fract_x
 _atom_site_fract_y
 _atom_site_fract_z
 _atom_site_occupancy
  C  C0  1  0.40231946  0.25069181  0.39773929  1
  C  C1  1  0.90232640  0.24937231  0.10229828  1
  C  C2  1  0.59765164  0.74937560  0.60219556  1
  C  C3  1  0.09767782  0.75070427  0.89771322  1
  N  N4  1  0.55835872  0.26209264  0.52353624  1
  N  N5  1  0.05834379  0.23784612  0.97649943  1
  N  N6  1  0.44163173  0.73777251  0.47641646  1
  N  N7  1  0.94165096  0.76207974  0.02353203  1
  H  H8  1  0.45253720  0.24773034  0.25734510  1
  H  H9  1  0.33185981  0.17643876  0.42578524  1
  H  H10  1  0.31001460  0.31815400  0.42023773  1
  H  H11  1  0.65284227  0.20187719  0.50596813  1
  H  H12  1  0.62825729  0.33259440  0.50149526  1
  H  H13  1  0.51845595  0.26237461  0.66185401  1
  H  H14  1  0.95254817  0.25235640  0.24268994  1
  H  H15  1  0.80993041  0.18194642  0.07987633  1
  H  H16  1  0.83196880  0.32364920  0.07417590  1
  H  H17  1  0.12810589  0.16729895  0.99857450  1
  H  H18  1  0.15297134  0.29799074  0.99401739  1
  H  H19  1  0.01843881  0.23757730  0.83818382  1
  H  H20  1  0.54744665  0.75236725  0.74259337  1
  H  H21  1  0.69011179  0.68197619  0.57979763  1
  H  H22  1  0.66792846  0.82367029  0.57402147  1
  H  H23  1  0.34690472  0.79786602  0.49392685  1
  H  H24  1  0.37197075  0.66719185  0.49851026  1
  H  H25  1  0.48152407  0.73751943  0.33809900  1
  H  H26  1  0.04744060  0.74774119  0.75732740  1
  H  H27  1  0.18995738  0.81817799  0.92020554  1
  H  H28  1  0.16817657  0.67645930  0.92574013  1
  H  H29  1  0.87172430  0.83257464  0.00150305  1
  H  H30  1  0.84718745  0.70185435  0.00596268  1
  H  H31  1  0.98156579  0.76236318  0.16184377  1
  Pd  Pd32  1  0.50010148  0.00005012  0.00007852  1
  Pd  Pd33  1  0.99992939  0.50002211  0.50003638  1
  Ba  Ba34  1  0.00010052  0.00002837  0.50006780  1
  Ba  Ba35  1  0.49994696  0.50001928  0.00002992  1
  Cl  Cl36  1  0.47103624  0.26872365  0.92879915  1
  Cl  Cl37  1  0.20992031  0.01482769  0.12990192  1
  Cl  Cl38  1  0.63142341  0.00974855  0.29114085  1
  Cl  Cl39  1  0.97105967  0.23133078  0.57123785  1
  Cl  Cl40  1  0.36876737  0.99033228  0.70901668  1
  Cl  Cl41  1  0.79025940  0.98519595  0.87021794  1
  Cl  Cl42  1  0.52893726  0.73132647  0.07115486  1
  Cl  Cl43  1  0.70976047  0.48520909  0.37018970  1
  Cl  Cl44  1  0.13126891  0.49033877  0.20898036  1
  Cl  Cl45  1  0.02896741  0.76872998  0.42879392  1
  Cl  Cl46  1  0.29009941  0.51477894  0.62988048  1
  Cl  Cl47  1  0.86861596  0.50973124  0.79110526  1
