# generated using pymatgen
data_CdH12PdC2(NCl3)2
_symmetry_space_group_name_H-M   'P 1'
_cell_length_a   7.84774244
_cell_length_b   10.24672736
_cell_length_c   7.66251234
_cell_angle_alpha   88.53461774
_cell_angle_beta   89.99064483
_cell_angle_gamma   90.00469652
_symmetry_Int_Tables_number   1
_chemical_formula_structural   CdH12PdC2(NCl3)2
_chemical_formula_sum   'Cd2 H24 Pd2 C4 N4 Cl12'
_cell_volume   615.96926967
_cell_formula_units_Z   2
loop_
 _symmetry_equiv_pos_site_id
 _symmetry_equiv_pos_as_xyz
  1  'x, y, z'
loop_
 _atom_site_type_symbol
 _atom_site_label
 _atom_site_symmetry_multiplicity
 _atom_site_fract_x
 _atom_site_fract_y
 _atom_site_fract_z
 _atom_site_occupancy
  C  C0  1  0.43623976  0.24663640  0.41999074  1
  C  C1  1  0.93659078  0.25329663  0.07988017  1
  C  C2  1  0.56375990  0.75336506  0.58002097  1
  C  C3  1  0.06341136  0.74670990  0.92013302  1
  N  N4  1  0.58534868  0.24637036  0.53842791  1
  N  N5  1  0.08555767  0.25367210  0.96117834  1
  N  N6  1  0.41465071  0.75363339  0.46158420  1
  N  N7  1  0.91444416  0.74632980  0.03883435  1
  H  H8  1  0.48223032  0.24911370  0.28522373  1
  H  H9  1  0.36308483  0.15754080  0.44453586  1
  H  H10  1  0.35829352  0.33232676  0.44488349  1
  H  H11  1  0.66237544  0.16690636  0.51300493  1
  H  H12  1  0.65812624  0.32965707  0.51502988  1
  H  H13  1  0.55124216  0.24140953  0.66990021  1
  H  H14  1  0.98282038  0.25094821  0.21457005  1
  H  H15  1  0.85877422  0.16751724  0.05522842  1
  H  H16  1  0.86327685  0.34230451  0.05539601  1
  H  H17  1  0.15843980  0.17044854  0.98447236  1
  H  H18  1  0.16250075  0.33319763  0.98637796  1
  H  H19  1  0.05123366  0.25855042  0.82974725  1
  H  H20  1  0.51776773  0.75088791  0.71478882  1
  H  H21  1  0.64170356  0.66767362  0.55512918  1
  H  H22  1  0.63691698  0.84245935  0.55547770  1
  H  H23  1  0.33762670  0.83309843  0.48700585  1
  H  H24  1  0.34187207  0.67034821  0.48498005  1
  H  H25  1  0.44875928  0.75859429  0.33011066  1
  H  H26  1  0.01718273  0.74905723  0.78544282  1
  H  H27  1  0.14122384  0.83249165  0.94478553  1
  H  H28  1  0.13673041  0.65770399  0.94461708  1
  H  H29  1  0.84155951  0.82955213  0.01554181  1
  H  H30  1  0.83750390  0.66680328  0.01363199  1
  H  H31  1  0.94876755  0.74145062  0.17026502  1
  Pd  Pd32  1  0.50000114  0.00000183  0.00000636  1
  Pd  Pd33  1  0.99999950  0.50000114  0.50000570  1
  Cd  Cd34  1  0.99999954  0.00000083  0.50000703  1
  Cd  Cd35  1  0.50000389  0.49999965  0.00000970  1
  Cl  Cl36  1  0.49307326  0.22584355  0.94416078  1
  Cl  Cl37  1  0.24710013  0.00732321  0.16554181  1
  Cl  Cl38  1  0.74967517  0.00887988  0.32742083  1
  Cl  Cl39  1  0.99283250  0.27414432  0.55566461  1
  Cl  Cl40  1  0.25032523  0.99112302  0.67259150  1
  Cl  Cl41  1  0.75290232  0.99268053  0.83447107  1
  Cl  Cl42  1  0.50692851  0.77416028  0.05585067  1
  Cl  Cl43  1  0.74720100  0.49276168  0.33437385  1
  Cl  Cl44  1  0.24959951  0.49111609  0.17251863  1
  Cl  Cl45  1  0.00716682  0.72585807  0.44434818  1
  Cl  Cl46  1  0.25279692  0.50724127  0.66563681  1
  Cl  Cl47  1  0.75040284  0.50888781  0.82749271  1
