# generated using pymatgen
data_AgBiH12C2(NCl3)2
_symmetry_space_group_name_H-M   'P 1'
_cell_length_a   7.71293508
_cell_length_b   10.91912048
_cell_length_c   7.47685112
_cell_angle_alpha   91.38732917
_cell_angle_beta   90.01078297
_cell_angle_gamma   89.98292163
_symmetry_Int_Tables_number   1
_chemical_formula_structural   AgBiH12C2(NCl3)2
_chemical_formula_sum   'Ag2 Bi2 H24 C4 N4 Cl12'
_cell_volume   629.50432225
_cell_formula_units_Z   2
loop_
 _symmetry_equiv_pos_site_id
 _symmetry_equiv_pos_as_xyz
  1  'x, y, z'
loop_
 _atom_site_type_symbol
 _atom_site_label
 _atom_site_symmetry_multiplicity
 _atom_site_fract_x
 _atom_site_fract_y
 _atom_site_fract_z
 _atom_site_occupancy
  C  C0  1  0.39453116  0.25108948  0.41150575  1
  C  C1  1  0.89567301  0.24910488  0.08945260  1
  C  C2  1  0.60546543  0.74891466  0.58850605  1
  C  C3  1  0.10433270  0.75089814  0.91055767  1
  N  N4  1  0.55087944  0.25151711  0.52599648  1
  N  N5  1  0.05134725  0.24845864  0.97406425  1
  N  N6  1  0.44911514  0.74848697  0.47401823  1
  N  N7  1  0.94865931  0.75154116  0.02594711  1
  H  H8  1  0.43502788  0.24865603  0.27151901  1
  H  H9  1  0.31977951  0.16917656  0.43908715  1
  H  H10  1  0.31874174  0.33336062  0.44122300  1
  H  H11  1  0.62451138  0.17411025  0.49669218  1
  H  H12  1  0.62590376  0.32791322  0.50075352  1
  H  H13  1  0.51969881  0.25187863  0.66184397  1
  H  H14  1  0.93702531  0.25159974  0.22918973  1
  H  H15  1  0.81963316  0.16689358  0.06034083  1
  H  H16  1  0.82082400  0.33109335  0.06226598  1
  H  H17  1  0.12643894  0.17200498  0.99899347  1
  H  H18  1  0.12517408  0.32581049  0.00287251  1
  H  H19  1  0.01941366  0.24805311  0.83838615  1
  H  H20  1  0.56497123  0.75134854  0.72849360  1
  H  H21  1  0.68125402  0.66664327  0.55878782  1
  H  H22  1  0.68021693  0.83082735  0.56092261  1
  H  H23  1  0.37548352  0.82589372  0.50332415  1
  H  H24  1  0.37409158  0.67209061  0.49926213  1
  H  H25  1  0.48029392  0.74812594  0.33817028  1
  H  H26  1  0.06297950  0.74840640  0.77082098  1
  H  H27  1  0.18037263  0.83310886  0.93967304  1
  H  H28  1  0.17918206  0.66890892  0.93773947  1
  H  H29  1  0.87356532  0.82799408  0.00101962  1
  H  H30  1  0.87483428  0.67418850  0.99713743  1
  H  H31  1  0.98059316  0.75194622  0.16162491  1
  Ag  Ag32  1  0.50000398  0.00000218  0.00000429  1
  Ag  Ag33  1  0.00000022  0.50000236  0.50000767  1
  Bi  Bi34  1  0.00000068  0.00000261  0.50000559  1
  Bi  Bi35  1  0.49999987  0.50000276  0.00000742  1
  Cl  Cl36  1  0.47435253  0.25160680  0.94276373  1
  Cl  Cl37  1  0.18609615  0.01122184  0.18834469  1
  Cl  Cl38  1  0.69362119  0.00708076  0.31614629  1
  Cl  Cl39  1  0.97366045  0.24836485  0.55775398  1
  Cl  Cl40  1  0.30638089  0.99292534  0.68386762  1
  Cl  Cl41  1  0.81390908  0.98877953  0.81166815  1
  Cl  Cl42  1  0.52565194  0.74839869  0.05725221  1
  Cl  Cl43  1  0.68601370  0.48862536  0.31175215  1
  Cl  Cl44  1  0.19365752  0.49301985  0.18372266  1
  Cl  Cl45  1  0.02633605  0.75164004  0.44225948  1
  Cl  Cl46  1  0.31398560  0.51137653  0.68825962  1
  Cl  Cl47  1  0.80634010  0.50698475  0.81628936  1
