# generated using pymatgen
data_AgH12AuC2(NCl3)2
_symmetry_space_group_name_H-M   'P 1'
_cell_length_a   7.80628088
_cell_length_b   10.37622638
_cell_length_c   7.77333704
_cell_angle_alpha   91.23324713
_cell_angle_beta   90.03717657
_cell_angle_gamma   89.99739060
_symmetry_Int_Tables_number   1
_chemical_formula_structural   AgH12AuC2(NCl3)2
_chemical_formula_sum   'Ag2 H24 Au2 C4 N4 Cl12'
_cell_volume   629.49228007
_cell_formula_units_Z   2
loop_
 _symmetry_equiv_pos_site_id
 _symmetry_equiv_pos_as_xyz
  1  'x, y, z'
loop_
 _atom_site_type_symbol
 _atom_site_label
 _atom_site_symmetry_multiplicity
 _atom_site_fract_x
 _atom_site_fract_y
 _atom_site_fract_z
 _atom_site_occupancy
  C  C0  1  0.42315647  0.25164708  0.41443860  1
  C  C1  1  0.92389789  0.24844108  0.08587908  1
  C  C2  1  0.57684182  0.74835693  0.58557296  1
  C  C3  1  0.07610408  0.75156326  0.91413326  1
  N  N4  1  0.57055578  0.25454701  0.53495315  1
  N  N5  1  0.07081281  0.24530238  0.96497781  1
  N  N6  1  0.42944302  0.74545718  0.46505782  1
  N  N7  1  0.92919077  0.75469765  0.03503653  1
  H  H8  1  0.47252060  0.25085407  0.28291351  1
  H  H9  1  0.34767157  0.16501846  0.43553693  1
  H  H10  1  0.34601431  0.33786416  0.43847082  1
  H  H11  1  0.64575035  0.17316606  0.51631061  1
  H  H12  1  0.64679625  0.33435853  0.50891121  1
  H  H13  1  0.53325109  0.25983473  0.66317105  1
  H  H14  1  0.97380586  0.24919773  0.21726859  1
  H  H15  1  0.84644515  0.16234059  0.06212157  1
  H  H16  1  0.84853256  0.33518091  0.06496348  1
  H  H17  1  0.14697674  0.16539648  0.99086227  1
  H  H18  1  0.14622821  0.32658449  0.98334481  1
  H  H19  1  0.03299459  0.23999947  0.83684307  1
  H  H20  1  0.52747736  0.74915079  0.71709788  1
  H  H21  1  0.65398332  0.66213932  0.56154169  1
  H  H22  1  0.65232773  0.83498503  0.56447416  1
  H  H23  1  0.35424877  0.82683849  0.48369981  1
  H  H24  1  0.35320202  0.66564604  0.49110021  1
  H  H25  1  0.46674800  0.74016894  0.33684019  1
  H  H26  1  0.02619408  0.75080729  0.78274461  1
  H  H27  1  0.15355402  0.83766503  0.93789159  1
  H  H28  1  0.15147269  0.66482463  0.93504590  1
  H  H29  1  0.85302382  0.83460239  0.00915462  1
  H  H30  1  0.85377783  0.67341425  0.01666886  1
  H  H31  1  0.96701020  0.76000006  0.16317092  1
  Ag  Ag32  1  0.50000180  0.00000129  0.00000709  1
  Ag  Ag33  1  0.00000000  0.50000216  0.50000677  1
  Au  Au34  1  -0.00000060  0.00000214  0.50000672  1
  Au  Au35  1  0.50000208  0.50000171  0.00000491  1
  Cl  Cl36  1  0.48860294  0.27500313  0.94791927  1
  Cl  Cl37  1  0.24213019  0.00992339  0.15886623  1
  Cl  Cl38  1  0.74602658  0.00642560  0.33760264  1
  Cl  Cl39  1  0.98834995  0.22497474  0.55223731  1
  Cl  Cl40  1  0.25397267  0.99357872  0.66241014  1
  Cl  Cl41  1  0.75787379  0.99007800  0.84114885  1
  Cl  Cl42  1  0.51140122  0.72500009  0.05209132  1
  Cl  Cl43  1  0.74196955  0.48977450  0.34114124  1
  Cl  Cl44  1  0.24610930  0.49359444  0.16217450  1
  Cl  Cl45  1  0.01164857  0.77502939  0.44777676  1
  Cl  Cl46  1  0.25803144  0.51022945  0.65887063  1
  Cl  Cl47  1  0.75389450  0.50640904  0.83783462  1
