# generated using pymatgen
data_CaH6CI3N
_symmetry_space_group_name_H-M   'P 1'
_cell_length_a   8.52944599
_cell_length_b   12.30679701
_cell_length_c   8.38096379
_cell_angle_alpha   89.99986876
_cell_angle_beta   89.99915505
_cell_angle_gamma   90.00413219
_symmetry_Int_Tables_number   1
_chemical_formula_structural   CaH6CI3N
_chemical_formula_sum   'Ca4 H24 C4 I12 N4'
_cell_volume   879.75111019
_cell_formula_units_Z   4
loop_
 _symmetry_equiv_pos_site_id
 _symmetry_equiv_pos_as_xyz
  1  'x, y, z'
loop_
 _atom_site_type_symbol
 _atom_site_label
 _atom_site_symmetry_multiplicity
 _atom_site_fract_x
 _atom_site_fract_y
 _atom_site_fract_z
 _atom_site_occupancy
  C  C0  1  0.41105048  0.25069706  0.42290017  1
  C  C1  1  0.91112720  0.25067476  0.07719658  1
  C  C2  1  0.58905106  0.74945571  0.57722119  1
  C  C3  1  0.08901220  0.74943509  0.92299511  1
  N  N4  1  0.55062939  0.25017556  0.52865973  1
  N  N5  1  0.05069032  0.25030318  0.97140762  1
  N  N6  1  0.44949232  0.74979315  0.47143209  1
  N  N7  1  0.94945652  0.74992415  0.02879159  1
  H  H8  1  0.45099642  0.25087032  0.29876572  1
  H  H9  1  0.34164901  0.17774316  0.44662281  1
  H  H10  1  0.34244876  0.32390585  0.44722858  1
  H  H11  1  0.61876315  0.18173912  0.50574700  1
  H  H12  1  0.61949343  0.31832043  0.50613481  1
  H  H13  1  0.52077962  0.25011499  0.64955514  1
  H  H14  1  0.95110955  0.25076847  0.20132196  1
  H  H15  1  0.84184226  0.17767735  0.05341516  1
  H  H16  1  0.84239512  0.32384079  0.05299726  1
  H  H17  1  0.11894822  0.18193595  0.99426960  1
  H  H18  1  0.11941842  0.31852647  0.99398240  1
  H  H19  1  0.02081260  0.25023695  0.85051965  1
  H  H20  1  0.54908147  0.74937827  0.70134967  1
  H  H21  1  0.65783356  0.67631043  0.55304115  1
  H  H22  1  0.65829149  0.82246793  0.55341175  1
  H  H23  1  0.38122123  0.81816176  0.49428076  1
  H  H24  1  0.38076864  0.68157008  0.49400956  1
  H  H25  1  0.47937491  0.74984404  0.35054524  1
  H  H26  1  0.04904391  0.74928322  0.79886616  1
  H  H27  1  0.15837264  0.82240374  0.94672869  1
  H  H28  1  0.15766705  0.67624779  0.94728128  1
  H  H29  1  0.88131305  0.81835985  0.00592318  1
  H  H30  1  0.88059681  0.68177880  0.00629778  1
  H  H31  1  0.97936070  0.74996689  0.14968435  1
  Ca  Ca32  1  0.49967970  0.00027084  0.00008245  1
  Ca  Ca33  1  0.99978688  0.49929118  0.49939117  1
  Ca  Ca34  1  0.99967538  0.99931598  0.50012864  1
  Ca  Ca35  1  0.50004955  0.50033515  0.99929559  1
  I  I36  1  0.48305712  0.25020888  0.94724039  1
  I  I37  1  0.18244868  0.01477246  0.18006512  1
  I  I38  1  0.68244290  0.01472110  0.32021687  1
  I  I39  1  0.98284319  0.24946307  0.55264196  1
  I  I40  1  0.31700095  0.98511908  0.67998275  1
  I  I41  1  0.81700635  0.98513045  0.82031676  1
  I  I42  1  0.51705440  0.75018917  0.05260631  1
  I  I43  1  0.68275576  0.48518312  0.31933658  1
  I  I44  1  0.18322818  0.48513359  0.17986352  1
  I  I45  1  0.01703399  0.74945063  0.44734753  1
  I  I46  1  0.31670055  0.51480922  0.67981417  1
  I  I47  1  0.81716864  0.51477302  0.81938304  1
