# generated using pymatgen
data_NbH12C2(I2N)3
_symmetry_space_group_name_H-M   'P 1'
_cell_length_a   9.02626433
_cell_length_b   9.87078675
_cell_length_c   8.91590226
_cell_angle_alpha   91.19547237
_cell_angle_beta   89.97757086
_cell_angle_gamma   89.96133201
_symmetry_Int_Tables_number   1
_chemical_formula_structural   NbH12C2(I2N)3
_chemical_formula_sum   'Nb2 H24 C4 I12 N6'
_cell_volume   794.20101994
_cell_formula_units_Z   2
loop_
 _symmetry_equiv_pos_site_id
 _symmetry_equiv_pos_as_xyz
  1  'x, y, z'
loop_
 _atom_site_type_symbol
 _atom_site_label
 _atom_site_symmetry_multiplicity
 _atom_site_fract_x
 _atom_site_fract_y
 _atom_site_fract_z
 _atom_site_occupancy
  C  C0  1  0.48210981  0.28615271  0.42831535  1
  C  C1  1  0.96324182  0.23691884  0.05219999  1
  C  C2  1  0.53563689  0.73666253  0.55236359  1
  C  C3  1  0.01893648  0.78546154  0.92821440  1
  N  N4  1  0.53051263  0.27042324  0.58554209  1
  N  N5  1  0.04002074  0.24568513  0.90537414  1
  N  N6  1  0.45877703  0.74561052  0.40564688  1
  N  N7  1  0.97181024  0.77153836  0.08611383  1
  H  H8  1  0.57534235  0.26562718  0.35280706  1
  H  H9  1  0.39179708  0.21462723  0.40489396  1
  H  H10  1  0.44132748  0.38961258  0.41495694  1
  H  H11  1  0.57213100  0.17454540  0.60617515  1
  H  H12  1  0.61385498  0.33880636  0.61763878  1
  H  H13  1  0.44279675  0.28618533  0.65868808  1
  H  H14  1  0.03792665  0.27188254  0.14141520  1
  H  H15  1  0.93164090  0.13147278  0.06977326  1
  H  H16  1  0.86341764  0.29988383  0.05019843  1
  H  H17  1  0.13098623  0.18065696  0.89581725  1
  H  H18  1  0.07731618  0.34265719  0.88377043  1
  H  H19  1  0.96954690  0.21931074  0.81707088  1
  H  H20  1  0.46097409  0.77156238  0.64173542  1
  H  H21  1  0.56733556  0.63117513  0.56975512  1
  H  H22  1  0.63541559  0.79956407  0.55029389  1
  H  H23  1  0.42132312  0.84261468  0.38426285  1
  H  H24  1  0.36795716  0.68055184  0.39610974  1
  H  H25  1  0.52929436  0.71938047  0.31722772  1
  H  H26  1  0.92509983  0.76429657  0.85380871  1
  H  H27  1  0.05955939  0.88870361  0.91308917  1
  H  H28  1  0.10907906  0.71359684  0.90493080  1
  H  H29  1  0.88798236  0.83969040  0.11776021  1
  H  H30  1  0.93135299  0.67566331  0.10867551  1
  H  H31  1  0.05990253  0.78905230  0.15826202  1
  N  N32  1  0.90769335  0.68923191  0.61077334  1
  N  N33  1  0.59229526  0.18901608  0.11077017  1
  Nb  Nb34  1  0.51272480  0.03811369  0.00987357  1
  Nb  Nb35  1  0.98667877  0.53790410  0.50992149  1
  I  I36  1  0.46043088  0.32830734  0.98349296  1
  I  I37  1  0.25778230  0.01863539  0.19997090  1
  I  I38  1  0.70850148  0.98109309  0.26539076  1
  I  I39  1  0.98512031  0.24380250  0.49693033  1
  I  I40  1  0.30919293  0.01927070  0.75713569  1
  I  I41  1  0.73630430  0.02724776  0.79024331  1
  I  I42  1  0.51204550  0.74393788  0.99718470  1
  I  I43  1  0.76380230  0.52878923  0.28961836  1
  I  I44  1  0.19068981  0.51807490  0.25750132  1
  I  I45  1  0.03992912  0.82818248  0.48363613  1
  I  I46  1  0.24173741  0.51699056  0.69932344  1
  I  I47  1  0.79068939  0.48190810  0.76564327  1
