# generated using pymatgen
data_AgH12IrC2(NCl3)2
_symmetry_space_group_name_H-M   'P 1'
_cell_length_a   7.35408549
_cell_length_b   10.70679390
_cell_length_c   7.18442032
_cell_angle_alpha   94.12304284
_cell_angle_beta   89.89910955
_cell_angle_gamma   89.98344164
_symmetry_Int_Tables_number   1
_chemical_formula_structural   AgH12IrC2(NCl3)2
_chemical_formula_sum   'Ag2 H24 Ir2 C4 N4 Cl12'
_cell_volume   564.22679238
_cell_formula_units_Z   2
loop_
 _symmetry_equiv_pos_site_id
 _symmetry_equiv_pos_as_xyz
  1  'x, y, z'
loop_
 _atom_site_type_symbol
 _atom_site_label
 _atom_site_symmetry_multiplicity
 _atom_site_fract_x
 _atom_site_fract_y
 _atom_site_fract_z
 _atom_site_occupancy
  C  C0  1  0.41300352  0.25363423  0.40744025  1
  C  C1  1  0.91374323  0.24632194  0.09233175  1
  C  C2  1  0.58699080  0.74636859  0.59257101  1
  C  C3  1  0.08626364  0.75368576  0.90768486  1
  N  N4  1  0.57750558  0.25895379  0.52387190  1
  N  N5  1  0.07807781  0.24091317  0.97505004  1
  N  N6  1  0.42248984  0.74105021  0.47613783  1
  N  N7  1  0.92192776  0.75908798  0.02496471  1
  H  H8  1  0.45421657  0.24657390  0.26122376  1
  H  H9  1  0.33345322  0.17243214  0.43981208  1
  H  H10  1  0.33550192  0.33943629  0.43733097  1
  H  H11  1  0.65697012  0.18026300  0.49343889  1
  H  H12  1  0.65376057  0.33669538  0.49800027  1
  H  H13  1  0.54673052  0.26426607  0.66646326  1
  H  H14  1  0.95520624  0.25354424  0.23832409  1
  H  H15  1  0.83638341  0.16045132  0.06302029  1
  H  H16  1  0.83397568  0.32743641  0.06015323  1
  H  H17  1  0.15442588  0.16317378  1.00045636  1
  H  H18  1  0.15755659  0.31957645  0.00509959  1
  H  H19  1  0.04702046  0.23564958  0.83262937  1
  H  H20  1  0.54577714  0.75342865  0.73878727  1
  H  H21  1  0.66449205  0.66056640  0.56268067  1
  H  H22  1  0.66654238  0.82757005  0.56019928  1
  H  H23  1  0.34302636  0.81974172  0.50656931  1
  H  H24  1  0.34623362  0.66330907  0.50200902  1
  H  H25  1  0.45326683  0.73573723  0.33354663  1
  H  H26  1  0.04480191  0.74646759  0.76169221  1
  H  H27  1  0.16362031  0.83955698  0.93700450  1
  H  H28  1  0.16603339  0.67257105  0.93985786  1
  H  H29  1  0.84557622  0.83682610  -0.00043851  1
  H  H30  1  0.84245228  0.68042357  0.99491054  1
  H  H31  1  0.95298309  0.76434966  0.16738566  1
  Ag  Ag32  1  0.50003979  0.00000730  0.99997571  1
  Ag  Ag33  1  0.99999272  0.50000476  0.50000368  1
  Ir  Ir34  1  0.99999234  0.99999996  0.50000638  1
  Ir  Ir35  1  0.50000417  0.50000091  0.00000566  1
  Cl  Cl36  1  0.49353828  0.27800600  0.94519142  1
  Cl  Cl37  1  0.17615644  0.00441767  0.21823678  1
  Cl  Cl38  1  0.72238708  0.99873946  0.32230652  1
  Cl  Cl39  1  0.99262331  0.22199479  0.55450265  1
  Cl  Cl40  1  0.27759586  0.00126092  0.67770950  1
  Cl  Cl41  1  0.82383494  0.99558226  0.78179033  1
  Cl  Cl42  1  0.50646856  0.72199416  0.05482002  1
  Cl  Cl43  1  0.67569893  0.49555731  0.28139710  1
  Cl  Cl44  1  0.22186702  0.50104458  0.17785695  1
  Cl  Cl45  1  0.00736551  0.77800375  0.44551356  1
  Cl  Cl46  1  0.32430756  0.50444460  0.71861718  1
  Cl  Cl47  1  0.77814230  0.49895758  0.82215420  1
