# generated using pymatgen
data_AgSbH12C2(NCl3)2
_symmetry_space_group_name_H-M   'P 1'
_cell_length_a   7.80374950
_cell_length_b   10.70949492
_cell_length_c   7.45106049
_cell_angle_alpha   91.60782694
_cell_angle_beta   90.00942934
_cell_angle_gamma   89.98811270
_symmetry_Int_Tables_number   1
_chemical_formula_structural   AgSbH12C2(NCl3)2
_chemical_formula_sum   'Ag2 Sb2 H24 C4 N4 Cl12'
_cell_volume   622.47134619
_cell_formula_units_Z   2
loop_
 _symmetry_equiv_pos_site_id
 _symmetry_equiv_pos_as_xyz
  1  'x, y, z'
loop_
 _atom_site_type_symbol
 _atom_site_label
 _atom_site_symmetry_multiplicity
 _atom_site_fract_x
 _atom_site_fract_y
 _atom_site_fract_z
 _atom_site_occupancy
  C  C0  1  0.41155301  0.25185366  0.41951127  1
  C  C1  1  0.91210352  0.24811159  0.08055172  1
  C  C2  1  0.58844545  0.74814864  0.58050004  1
  C  C3  1  0.08790142  0.75189324  0.91945860  1
  N  N4  1  0.57047696  0.25356754  0.52784796  1
  N  N5  1  0.07071489  0.24630854  0.97176990  1
  N  N6  1  0.42951885  0.74643639  0.47216763  1
  N  N7  1  0.92929073  0.75369346  0.02824139  1
  H  H8  1  0.44664799  0.24838511  0.27759412  1
  H  H9  1  0.33855221  0.16879719  0.45173961  1
  H  H10  1  0.33805962  0.33617388  0.45126377  1
  H  H11  1  0.64375400  0.17548991  0.49478908  1
  H  H12  1  0.64241820  0.33199033  0.50033739  1
  H  H13  1  0.54446082  0.25354953  0.66512850  1
  H  H14  1  0.94762013  0.25163422  0.22236155  1
  H  H15  1  0.83852270  0.16380759  0.04908435  1
  H  H16  1  0.83900257  0.33118462  0.04845765  1
  H  H17  1  0.14272118  0.16785296  0.99909774  1
  H  H18  1  0.14409063  0.32434966  0.00458723  1
  H  H19  1  0.04431272  0.24630591  0.83455726  1
  H  H20  1  0.55335406  0.75161493  0.72241822  1
  H  H21  1  0.66193860  0.66382905  0.54874282  1
  H  H22  1  0.66144516  0.83120580  0.54827256  1
  H  H23  1  0.35624319  0.82451409  0.50523004  1
  H  H24  1  0.35757823  0.66801330  0.49967889  1
  H  H25  1  0.45553231  0.74645570  0.33488655  1
  H  H26  1  0.05238385  0.74837194  0.77764903  1
  H  H27  1  0.16148064  0.83619773  0.95092740  1
  H  H28  1  0.16100438  0.66882059  0.95154993  1
  H  H29  1  0.85728207  0.83214815  0.00091479  1
  H  H30  1  0.85591683  0.67565146  0.99542350  1
  H  H31  1  0.95569333  0.75369574  0.16545396  1
  Ag  Ag32  1  0.49999391  0.99999882  0.99999679  1
  Ag  Ag33  1  0.00001076  0.50000043  0.50001280  1
  Sb  Sb34  1  0.99999704  0.00000113  0.50000656  1
  Sb  Sb35  1  0.50000187  0.50000226  0.00000775  1
  Cl  Cl36  1  0.48750839  0.25110468  0.94662274  1
  Cl  Cl37  1  0.19394636  0.00935646  0.20487705  1
  Cl  Cl38  1  0.71150385  0.00701263  0.30737943  1
  Cl  Cl39  1  0.98715184  0.24890701  0.55330016  1
  Cl  Cl40  1  0.28850164  0.99299318  0.69263703  1
  Cl  Cl41  1  0.80604927  0.99064614  0.79513873  1
  Cl  Cl42  1  0.51249721  0.74890211  0.05339550  1
  Cl  Cl43  1  0.69396607  0.49051558  0.29522703  1
  Cl  Cl44  1  0.21147599  0.49291976  0.19239602  1
  Cl  Cl45  1  0.01284283  0.75109484  0.44671265  1
  Cl  Cl46  1  0.30603174  0.50948622  0.70477780  1
  Cl  Cl47  1  0.78852471  0.50708459  0.80761413  1
