# generated using pymatgen
data_InAgH12C2(NCl3)2
_symmetry_space_group_name_H-M   'P 1'
_cell_length_a   7.68911619
_cell_length_b   10.49775553
_cell_length_c   7.41334588
_cell_angle_alpha   92.08784589
_cell_angle_beta   90.01185957
_cell_angle_gamma   89.96505542
_symmetry_Int_Tables_number   1
_chemical_formula_structural   InAgH12C2(NCl3)2
_chemical_formula_sum   'In2 Ag2 H24 C4 N4 Cl12'
_cell_volume   597.99650857
_cell_formula_units_Z   2
loop_
 _symmetry_equiv_pos_site_id
 _symmetry_equiv_pos_as_xyz
  1  'x, y, z'
loop_
 _atom_site_type_symbol
 _atom_site_label
 _atom_site_symmetry_multiplicity
 _atom_site_fract_x
 _atom_site_fract_y
 _atom_site_fract_z
 _atom_site_occupancy
  C  C0  1  0.40729484  0.25150097  0.41712321  1
  C  C1  1  0.90802848  0.24855717  0.08321207  1
  C  C2  1  0.59270318  0.74850344  0.58288902  1
  C  C3  1  0.09197495  0.75144635  0.91680015  1
  N  N4  1  0.56603139  0.25367736  0.52945312  1
  N  N5  1  0.06633315  0.24625158  0.97029727  1
  N  N6  1  0.43396654  0.74632725  0.47055923  1
  N  N7  1  0.93367171  0.75374879  0.02971703  1
  H  H8  1  0.44532957  0.24836308  0.27524235  1
  H  H9  1  0.33278152  0.16684469  0.44717157  1
  H  H10  1  0.33173481  0.33726694  0.44828591  1
  H  H11  1  0.64111176  0.17383774  0.49783743  1
  H  H12  1  0.63961564  0.33331815  0.50349851  1
  H  H13  1  0.53730737  0.25469731  0.66699518  1
  H  H14  1  0.94662740  0.25169887  0.22494480  1
  H  H15  1  0.83236858  0.16285669  0.05239076  1
  H  H16  1  0.83336937  0.33328406  0.05344459  1
  H  H17  1  0.14003586  0.16653573  0.99595762  1
  H  H18  1  0.14149807  0.32601403  0.00163413  1
  H  H19  1  0.03710264  0.24524927  0.83285452  1
  H  H20  1  0.55466844  0.75164386  0.72476995  1
  H  H21  1  0.66826125  0.66273617  0.55172890  1
  H  H22  1  0.66721833  0.83315827  0.55283802  1
  H  H23  1  0.35888726  0.82616764  0.50217353  1
  H  H24  1  0.36038125  0.66668724  0.49651492  1
  H  H25  1  0.46269079  0.74530617  0.33301702  1
  H  H26  1  0.05337414  0.74830538  0.77506792  1
  H  H27  1  0.16763334  0.83714741  0.94762196  1
  H  H28  1  0.16663632  0.66671990  0.94656464  1
  H  H29  1  0.85996615  0.83346358  0.00405847  1
  H  H30  1  0.85850886  0.67398538  0.99837998  1
  H  H31  1  0.96290362  0.75475109  0.16715947  1
  Ag  Ag32  1  0.50000315  0.00000157  0.00000432  1
  Ag  Ag33  1  0.99999455  0.50000103  0.49999848  1
  In  In34  1  0.99999989  0.00000195  0.50000659  1
  In  In35  1  0.50000102  0.50000203  0.00000439  1
  Cl  Cl36  1  0.48577078  0.25234330  0.94923758  1
  Cl  Cl37  1  0.18161870  0.00723521  0.21217613  1
  Cl  Cl38  1  0.71844438  0.00369610  0.31500954  1
  Cl  Cl39  1  0.98529834  0.24766301  0.55085059  1
  Cl  Cl40  1  0.28155573  0.99630873  0.68500410  1
  Cl  Cl41  1  0.81838288  0.99276630  0.78783849  1
  Cl  Cl42  1  0.51423309  0.74766022  0.05077573  1
  Cl  Cl43  1  0.68160309  0.49262766  0.28797849  1
  Cl  Cl44  1  0.21845688  0.49630693  0.18473562  1
  Cl  Cl45  1  0.01470053  0.75234044  0.44916409  1
  Cl  Cl46  1  0.31839838  0.50737544  0.71203332  1
  Cl  Cl47  1  0.78154575  0.50369682  0.81527586  1
