# generated using pymatgen
data_CdH12PbC2(NCl3)2
_symmetry_space_group_name_H-M   'P 1'
_cell_length_a   7.75161178
_cell_length_b   10.96255003
_cell_length_c   7.44987916
_cell_angle_alpha   89.02676119
_cell_angle_beta   89.99915739
_cell_angle_gamma   90.01134477
_symmetry_Int_Tables_number   1
_chemical_formula_structural   CdH12PbC2(NCl3)2
_chemical_formula_sum   'Cd2 H24 Pb2 C4 N4 Cl12'
_cell_volume   632.98025771
_cell_formula_units_Z   2
loop_
 _symmetry_equiv_pos_site_id
 _symmetry_equiv_pos_as_xyz
  1  'x, y, z'
loop_
 _atom_site_type_symbol
 _atom_site_label
 _atom_site_symmetry_multiplicity
 _atom_site_fract_x
 _atom_site_fract_y
 _atom_site_fract_z
 _atom_site_occupancy
  C  C0  1  0.39661480  0.25009930  0.41314156  1
  C  C1  1  0.89744515  0.24997024  0.08757563  1
  C  C2  1  0.60338205  0.74990549  0.58687038  1
  C  C3  1  0.10255976  0.75003203  0.91243636  1
  N  N4  1  0.55430910  0.24873898  0.52473754  1
  N  N5  1  0.05461681  0.25118549  0.97519038  1
  N  N6  1  0.44568776  0.75126706  0.47527437  1
  N  N7  1  0.94538867  0.74881334  0.02482240  1
  H  H8  1  0.43429536  0.24984792  0.27179422  1
  H  H9  1  0.32263079  0.16789746  0.44422606  1
  H  H10  1  0.32200375  0.33155099  0.44268440  1
  H  H11  1  0.62665579  0.17221384  0.49457458  1
  H  H12  1  0.62851701  0.32559358  0.49629663  1
  H  H13  1  0.52569186  0.24624271  0.66181275  1
  H  H14  1  0.93580062  0.25020697  0.22871047  1
  H  H15  1  0.82249289  0.16856930  0.05844833  1
  H  H16  1  0.82349907  0.33224013  0.05689287  1
  H  H17  1  0.12880992  0.17430059  0.00338259  1
  H  H18  1  0.12722730  0.32768692  0.00495101  1
  H  H19  1  0.02542646  0.25364825  0.83826775  1
  H  H20  1  0.56570215  0.75015889  0.72821753  1
  H  H21  1  0.67799094  0.66845245  0.55732878  1
  H  H22  1  0.67736851  0.83210604  0.55578355  1
  H  H23  1  0.37334224  0.82779287  0.50543747  1
  H  H24  1  0.37147848  0.67441292  0.50371569  1
  H  H25  1  0.47430492  0.75376297  0.33819969  1
  H  H26  1  0.06420325  0.74979699  0.77130153  1
  H  H27  1  0.17751061  0.83143318  0.94156575  1
  H  H28  1  0.17650741  0.66776237  0.94311555  1
  H  H29  1  0.87119279  0.82569690  0.99663181  1
  H  H30  1  0.87278094  0.67231075  0.99506137  1
  H  H31  1  0.97457965  0.74635062  0.16174528  1
  Cd  Cd32  1  0.50000176  0.00000226  0.00000671  1
  Cd  Cd33  1  0.99999972  0.50000170  0.50000492  1
  Pb  Pb34  1  0.99999980  0.00000217  0.50000707  1
  Pb  Pb35  1  0.50000024  0.50000259  0.00000532  1
  Cl  Cl36  1  0.47563667  0.24120182  0.94134923  1
  Cl  Cl37  1  0.20212067  0.00867870  0.17449556  1
  Cl  Cl38  1  0.67708624  0.01284459  0.30709519  1
  Cl  Cl39  1  0.97512243  0.25879709  0.55898991  1
  Cl  Cl40  1  0.32291432  0.98716156  0.69292015  1
  Cl  Cl41  1  0.79788349  0.99132219  0.82552003  1
  Cl  Cl42  1  0.52436822  0.75880293  0.05866478  1
  Cl  Cl43  1  0.70216056  0.49121470  0.32542852  1
  Cl  Cl44  1  0.17714197  0.48719767  0.19293605  1
  Cl  Cl45  1  0.02487502  0.74120648  0.44102404  1
  Cl  Cl46  1  0.29783918  0.50878875  0.67458101  1
  Cl  Cl47  1  0.82285662  0.51280557  0.80707383  1
