# generated using pymatgen
data_CdHgH12C2(NCl3)2
_symmetry_space_group_name_H-M   'P 1'
_cell_length_a   7.61601466
_cell_length_b   10.88383449
_cell_length_c   7.54162127
_cell_angle_alpha   88.90925473
_cell_angle_beta   89.99684940
_cell_angle_gamma   90.00866103
_symmetry_Int_Tables_number   1
_chemical_formula_structural   CdHgH12C2(NCl3)2
_chemical_formula_sum   'Cd2 Hg2 H24 C4 N4 Cl12'
_cell_volume   625.02258722
_cell_formula_units_Z   2
loop_
 _symmetry_equiv_pos_site_id
 _symmetry_equiv_pos_as_xyz
  1  'x, y, z'
loop_
 _atom_site_type_symbol
 _atom_site_label
 _atom_site_symmetry_multiplicity
 _atom_site_fract_x
 _atom_site_fract_y
 _atom_site_fract_z
 _atom_site_occupancy
  C  C0  1  0.40912249  0.25044647  0.41093906  1
  C  C1  1  0.90966171  0.24959548  0.08922212  1
  C  C2  1  0.59087648  0.74955716  0.58907203  1
  C  C3  1  0.09034143  0.75040903  0.91078879  1
  N  N4  1  0.56534692  0.25037587  0.52734827  1
  N  N5  1  0.06562200  0.24953258  0.97243421  1
  N  N6  1  0.43465046  0.74962935  0.47266492  1
  N  N7  1  0.93438236  0.75046778  0.02757850  1
  H  H8  1  0.45238285  0.25228265  0.27260714  1
  H  H9  1  0.33267987  0.16754352  0.43820532  1
  H  H10  1  0.33153851  0.33203178  0.43855096  1
  H  H11  1  0.64311467  0.17440327  0.50326608  1
  H  H12  1  0.64059028  0.32811163  0.50001909  1
  H  H13  1  0.53244267  0.24872650  0.66200709  1
  H  H14  1  0.95327194  0.24774371  0.22744231  1
  H  H15  1  0.83185108  0.16805679  0.06185244  1
  H  H16  1  0.83331214  0.33255214  0.06214100  1
  H  H17  1  0.14076161  0.17176805  0.99961867  1
  H  H18  1  0.14354260  0.32546249  0.99626514  1
  H  H19  1  0.03238177  0.25117263  0.83783071  1
  H  H20  1  0.54761746  0.74772239  0.72740450  1
  H  H21  1  0.66845772  0.66797059  0.56146044  1
  H  H22  1  0.66732115  0.83245887  0.56180393  1
  H  H23  1  0.35688547  0.82560302  0.49674651  1
  H  H24  1  0.35940570  0.67189472  0.49999506  1
  H  H25  1  0.46755411  0.75127752  0.33800515  1
  H  H26  1  0.04672960  0.75226134  0.77256942  1
  H  H27  1  0.16814888  0.83194880  0.93815939  1
  H  H28  1  0.16669428  0.66745355  0.93786744  1
  H  H29  1  0.85923882  0.82823112  0.00039563  1
  H  H30  1  0.85646422  0.67453647  0.00374689  1
  H  H31  1  0.96762306  0.74882781  0.16218174  1
  Cd  Cd32  1  0.50000176  0.00000094  0.00000686  1
  Cd  Cd33  1  0.00000169  0.50000147  0.50000708  1
  Hg  Hg34  1  0.99999914  0.00000195  0.50000561  1
  Hg  Hg35  1  0.50000210  0.50000082  0.00000992  1
  Cl  Cl36  1  0.48217675  0.23411608  0.93691937  1
  Cl  Cl37  1  0.21389061  0.00781692  0.17261480  1
  Cl  Cl38  1  0.72520195  0.01021092  0.33525413  1
  Cl  Cl39  1  0.98179894  0.26587641  0.56313470  1
  Cl  Cl40  1  0.27479627  0.98979435  0.66475724  1
  Cl  Cl41  1  0.78611168  0.99218448  0.82739775  1
  Cl  Cl42  1  0.51782622  0.76588587  0.06309406  1
  Cl  Cl43  1  0.71393894  0.49215852  0.32738519  1
  Cl  Cl44  1  0.22517870  0.48977668  0.16466082  1
  Cl  Cl45  1  0.01819986  0.73412674  0.43687886  1
  Cl  Cl46  1  0.28606348  0.50784440  0.67262841  1
  Cl  Cl47  1  0.77482135  0.51022665  0.83535183  1
