# generated using pymatgen
data_CdH12PtC2(NCl3)2
_symmetry_space_group_name_H-M   'P 1'
_cell_length_a   7.40105121
_cell_length_b   11.62979975
_cell_length_c   7.14957253
_cell_angle_alpha   86.87843655
_cell_angle_beta   89.99553798
_cell_angle_gamma   90.03223065
_symmetry_Int_Tables_number   1
_chemical_formula_structural   CdH12PtC2(NCl3)2
_chemical_formula_sum   'Cd2 H24 Pt2 C4 N4 Cl12'
_cell_volume   614.47014470
_cell_formula_units_Z   2
loop_
 _symmetry_equiv_pos_site_id
 _symmetry_equiv_pos_as_xyz
  1  'x, y, z'
loop_
 _atom_site_type_symbol
 _atom_site_label
 _atom_site_symmetry_multiplicity
 _atom_site_fract_x
 _atom_site_fract_y
 _atom_site_fract_z
 _atom_site_occupancy
  C  C0  1  0.40672761  0.25384174  0.41418041  1
  C  C1  1  0.90759483  0.24626795  0.08607143  1
  C  C2  1  0.59326984  0.74616121  0.58582755  1
  C  C3  1  0.09240818  0.75373733  0.91394279  1
  N  N4  1  0.57430131  0.24463656  0.52621318  1
  N  N5  1  0.07482736  0.25527635  0.97342134  1
  N  N6  1  0.42569727  0.75537053  0.47379356  1
  N  N7  1  0.92517749  0.74472093  0.02659478  1
  H  H8  1  0.44372557  0.26149711  0.26629958  1
  H  H9  1  0.32470504  0.17686565  0.44412048  1
  H  H10  1  0.33459152  0.33083670  0.45192659  1
  H  H11  1  0.64874573  0.17289179  0.49169196  1
  H  H12  1  0.65430607  0.31659931  0.50180154  1
  H  H13  1  0.54671674  0.23617395  0.66956935  1
  H  H14  1  0.94506600  0.23861889  0.23382826  1
  H  H15  1  0.83496402  0.16935026  0.04867498  1
  H  H16  1  0.82582651  0.32333915  0.05639341  1
  H  H17  1  0.15462842  0.18326385  0.99763164  1
  H  H18  1  0.14961603  0.32698567  0.00760106  1
  H  H19  1  0.04677085  0.26371455  0.83016806  1
  H  H20  1  0.55627100  0.73850548  0.73370868  1
  H  H21  1  0.66540322  0.66916576  0.54807998  1
  H  H22  1  0.67529565  0.82313632  0.55589002  1
  H  H23  1  0.35125513  0.82711605  0.50831576  1
  H  H24  1  0.34568918  0.68340908  0.49820168  1
  H  H25  1  0.45328368  0.76383386  0.33043799  1
  H  H26  1  0.05493554  0.76138980  0.76618670  1
  H  H27  1  0.16503468  0.83065571  0.95134443  1
  H  H28  1  0.17418181  0.67666774  0.94361475  1
  H  H29  1  0.84537030  0.81673137  0.00239086  1
  H  H30  1  0.85039275  0.67301065  0.99241177  1
  H  H31  1  0.95323532  0.73627972  0.16984743  1
  Cd  Cd32  1  0.50001833  0.00000238  0.99999250  1
  Cd  Cd33  1  0.00001608  0.50000176  0.50004613  1
  Pt  Pt34  1  0.99999757  0.00000179  0.50000603  1
  Pt  Pt35  1  0.49999426  0.50000159  0.00000403  1
  Cl  Cl36  1  0.48383012  0.20374365  0.94875078  1
  Cl  Cl37  1  0.15111421  0.99707969  0.21343101  1
  Cl  Cl38  1  0.72190455  0.01412977  0.34655526  1
  Cl  Cl39  1  0.98313132  0.29628953  0.55142017  1
  Cl  Cl40  1  0.27809122  0.98587428  0.65345730  1
  Cl  Cl41  1  0.84888463  0.00292261  0.78658691  1
  Cl  Cl42  1  0.51617301  0.79626147  0.05125705  1
  Cl  Cl43  1  0.65116847  0.50280522  0.28653285  1
  Cl  Cl44  1  0.22187221  0.48591495  0.15346892  1
  Cl  Cl45  1  0.01686576  0.70371051  0.44859760  1
  Cl  Cl46  1  0.34882497  0.49719901  0.71346694  1
  Cl  Cl47  1  0.77812240  0.51408904  0.84654110  1
