# generated using pymatgen
data_HfCdH12C2(NCl3)2
_symmetry_space_group_name_H-M   'P 1'
_cell_length_a   7.68052800
_cell_length_b   11.46728340
_cell_length_c   7.97369039
_cell_angle_alpha   101.46528904
_cell_angle_beta   90.00003898
_cell_angle_gamma   89.98664084
_symmetry_Int_Tables_number   1
_chemical_formula_structural   HfCdH12C2(NCl3)2
_chemical_formula_sum   'Hf2 Cd2 H24 C4 N4 Cl12'
_cell_volume   688.26729218
_cell_formula_units_Z   2
loop_
 _symmetry_equiv_pos_site_id
 _symmetry_equiv_pos_as_xyz
  1  'x, y, z'
loop_
 _atom_site_type_symbol
 _atom_site_label
 _atom_site_symmetry_multiplicity
 _atom_site_fract_x
 _atom_site_fract_y
 _atom_site_fract_z
 _atom_site_occupancy
  C  C0  1  0.43128317  0.24797229  0.39418961  1
  C  C1  1  0.93123902  0.25186392  0.10585476  1
  C  C2  1  0.56892939  0.75180500  0.60590540  1
  C  C3  1  0.06850120  0.74797877  0.89412937  1
  N  N4  1  0.56375428  0.25308081  0.53124917  1
  N  N5  1  0.06339934  0.24719273  0.96860394  1
  N  N6  1  0.43682209  0.74719649  0.46862322  1
  N  N7  1  0.93635570  0.75302051  0.03147781  1
  H  H8  1  0.49865674  0.24337721  0.27208744  1
  H  H9  1  0.35217255  0.16818601  0.39015991  1
  H  H10  1  0.35079399  0.32826086  0.42286039  1
  H  H11  1  0.63895373  0.17594070  0.50786344  1
  H  H12  1  0.64582303  0.32520561  0.53851511  1
  H  H13  1  0.50845431  0.25987205  0.65222788  1
  H  H14  1  -0.00112981  0.25667532  0.22785395  1
  H  H15  1  0.85136330  0.17129427  0.07728811  1
  H  H16  1  0.85145032  0.33137728  0.11000220  1
  H  H17  1  0.14610753  0.17539021  0.96123438  1
  H  H18  1  0.13799645  0.32462830  0.99196333  1
  H  H19  1  0.00791025  0.24023014  0.84770668  1
  H  H20  1  0.50127118  0.75619848  0.72778768  1
  H  H21  1  0.64919331  0.67139426  0.57701420  1
  H  H22  1  0.64835610  0.83150792  0.61047338  1
  H  H23  1  0.36202801  0.82457492  0.49213939  1
  H  H24  1  0.35428577  0.67530440  0.46105594  1
  H  H25  1  0.49232620  0.74041269  0.34778681  1
  H  H26  1  1.00084339  0.74388257  0.77228915  1
  H  H27  1  0.14933279  0.82807690  0.92301771  1
  H  H28  1  0.14732971  0.66797123  0.88943144  1
  H  H29  1  0.85441081  0.82526209  0.03920791  1
  H  H30  1  0.86101086  0.67596120  0.00801321  1
  H  H31  1  0.99193825  0.75954232  0.15227791  1
  Cd  Cd32  1  0.50008784  0.00001333  0.00013233  1
  Cd  Cd33  1  0.99967445  0.49990280  0.49987471  1
  Hf  Hf34  1  0.00009095  0.99992429  0.50005804  1
  Hf  Hf35  1  0.49977981  0.49998643  0.99991528  1
  Cl  Cl36  1  0.48179772  0.28133076  0.93129586  1
  Cl  Cl37  1  0.11094318  0.00733111  0.21606277  1
  Cl  Cl38  1  0.70298721  0.98725310  0.38579422  1
  Cl  Cl39  1  0.98200090  0.21858202  0.56852154  1
  Cl  Cl40  1  0.29716524  0.01264434  0.61443559  1
  Cl  Cl41  1  0.88920972  0.99258528  0.78406728  1
  Cl  Cl42  1  0.51787839  0.71863529  0.06848239  1
  Cl  Cl43  1  0.61051136  0.49248801  0.28393667  1
  Cl  Cl44  1  0.20267029  0.51273069  0.11425260  1
  Cl  Cl45  1  0.01830288  0.78127124  0.43154387  1
  Cl  Cl46  1  0.38887253  0.50740252  0.71593537  1
  Cl  Cl47  1  0.79688829  0.48735960  0.88569724  1
