# generated using pymatgen
data_BaCdH12C2(NCl3)2
_symmetry_space_group_name_H-M   'P 1'
_cell_length_a   7.93450271
_cell_length_b   11.21529004
_cell_length_c   7.51103623
_cell_angle_alpha   88.26598294
_cell_angle_beta   89.99472001
_cell_angle_gamma   90.00623940
_symmetry_Int_Tables_number   1
_chemical_formula_structural   BaCdH12C2(NCl3)2
_chemical_formula_sum   'Ba2 Cd2 H24 C4 N4 Cl12'
_cell_volume   668.08412586
_cell_formula_units_Z   2
loop_
 _symmetry_equiv_pos_site_id
 _symmetry_equiv_pos_as_xyz
  1  'x, y, z'
loop_
 _atom_site_type_symbol
 _atom_site_label
 _atom_site_symmetry_multiplicity
 _atom_site_fract_x
 _atom_site_fract_y
 _atom_site_fract_z
 _atom_site_occupancy
  C  C0  1  0.39607634  0.25063595  0.41293018  1
  C  C1  1  0.89685706  0.24940289  0.08788220  1
  C  C2  1  0.60392081  0.74936905  0.58708183  1
  C  C3  1  0.10314726  0.75059898  0.91212953  1
  N  N4  1  0.55161256  0.24791376  0.52171133  1
  N  N5  1  0.05188000  0.25200707  0.97826509  1
  N  N6  1  0.44838497  0.75209287  0.47830074  1
  N  N7  1  0.94812454  0.74799201  0.02174692  1
  H  H8  1  0.43114932  0.25019616  0.27202102  1
  H  H9  1  0.32462604  0.16963903  0.44487437  1
  H  H10  1  0.32305075  0.33000464  0.44287585  1
  H  H11  1  0.62099478  0.17307438  0.48889124  1
  H  H12  1  0.62426024  0.32361953  0.49390613  1
  H  H13  1  0.52482899  0.24290527  0.65813641  1
  H  H14  1  0.93264083  0.24978293  0.22858583  1
  H  H15  1  0.82350394  0.17010714  0.05831142  1
  H  H16  1  0.82543179  0.33048566  0.05645617  1
  H  H17  1  0.12453181  0.17627052  0.00580646  1
  H  H18  1  0.12149487  0.32681517  0.01064871  1
  H  H19  1  0.02451658  0.25696820  0.84196809  1
  H  H20  1  0.56884814  0.74981118  0.72799086  1
  H  H21  1  0.67694367  0.66999871  0.55713827  1
  H  H22  1  0.67537421  0.83036415  0.55513526  1
  H  H23  1  0.37900410  0.82693287  0.51112084  1
  H  H24  1  0.37573573  0.67638787  0.50610580  1
  H  H25  1  0.47516851  0.75710091  0.34187576  1
  H  H26  1  0.06736296  0.75022135  0.77142590  1
  H  H27  1  0.17649979  0.82989447  0.94170308  1
  H  H28  1  0.17457322  0.66951597  0.94355158  1
  H  H29  1  0.87547067  0.82372758  0.99420642  1
  H  H30  1  0.87851191  0.67318297  0.98936237  1
  H  H31  1  0.97548792  0.74303093  0.15804392  1
  Cd  Cd32  1  0.50000223  0.00000135  0.00000642  1
  Cd  Cd33  1  0.00000005  0.50000204  0.50000593  1
  Ba  Ba34  1  0.00000004  0.00000227  0.50000636  1
  Ba  Ba35  1  0.50000000  0.50000181  0.00000638  1
  Cl  Cl36  1  0.47323862  0.23457919  0.93510582  1
  Cl  Cl37  1  0.20372662  0.01080751  0.15786924  1
  Cl  Cl38  1  0.66193784  0.01875239  0.30929909  1
  Cl  Cl39  1  0.97279674  0.26541727  0.56524629  1
  Cl  Cl40  1  0.33806208  0.98125290  0.69071613  1
  Cl  Cl41  1  0.79627828  0.98919334  0.84214666  1
  Cl  Cl42  1  0.52676675  0.76542390  0.06490796  1
  Cl  Cl43  1  0.70379260  0.48905102  0.34201065  1
  Cl  Cl44  1  0.16200626  0.48124989  0.19076234  1
  Cl  Cl45  1  0.02720094  0.73458677  0.43476740  1
  Cl  Cl46  1  0.29620777  0.51095330  0.65800124  1
  Cl  Cl47  1  0.83799259  0.51875316  0.80924910  1
