# generated using pymatgen
data_CdSnH12C2(NCl3)2
_symmetry_space_group_name_H-M   'P 1'
_cell_length_a   7.71611569
_cell_length_b   10.87680124
_cell_length_c   7.44171514
_cell_angle_alpha   89.14616830
_cell_angle_beta   89.99849135
_cell_angle_gamma   90.01044097
_symmetry_Int_Tables_number   1
_chemical_formula_structural   CdSnH12C2(NCl3)2
_chemical_formula_sum   'Cd2 Sn2 H24 C4 N4 Cl12'
_cell_volume   624.48891387
_cell_formula_units_Z   2
loop_
 _symmetry_equiv_pos_site_id
 _symmetry_equiv_pos_as_xyz
  1  'x, y, z'
loop_
 _atom_site_type_symbol
 _atom_site_label
 _atom_site_symmetry_multiplicity
 _atom_site_fract_x
 _atom_site_fract_y
 _atom_site_fract_z
 _atom_site_occupancy
  C  C0  1  0.39687023  0.25008117  0.41330629  1
  C  C1  1  0.89773802  0.24999734  0.08741017  1
  C  C2  1  0.60312609  0.74992371  0.58670527  1
  C  C3  1  0.10226739  0.75000486  0.91260219  1
  N  N4  1  0.55482401  0.24898948  0.52565503  1
  N  N5  1  0.05514979  0.25095058  0.97425196  1
  N  N6  1  0.44517254  0.75101659  0.47435615  1
  N  N7  1  0.94485626  0.74904806  0.02576136  1
  H  H8  1  0.43521776  0.25007712  0.27201142  1
  H  H9  1  0.32240795  0.16733714  0.44403604  1
  H  H10  1  0.32189821  0.33216088  0.44274405  1
  H  H11  1  0.62803423  0.17194474  0.49641058  1
  H  H12  1  0.62928567  0.32636399  0.49736080  1
  H  H13  1  0.52552316  0.24700753  0.66268607  1
  H  H14  1  0.93677522  0.24999818  0.22848600  1
  H  H15  1  0.82243669  0.16796471  0.05841510  1
  H  H16  1  0.82329400  0.33280456  0.05707471  1
  H  H17  1  0.12960064  0.17354215  0.00228322  1
  H  H18  1  0.12861866  0.32796553  0.00307968  1
  H  H19  1  0.02524986  0.25289987  0.83737880  1
  H  H20  1  0.56477897  0.74992954  0.72799990  1
  H  H21  1  0.67809618  0.66784281  0.55726862  1
  H  H22  1  0.67759069  0.83266653  0.55597357  1
  H  H23  1  0.37196330  0.82806199  0.50360059  1
  H  H24  1  0.37070950  0.67364261  0.50265058  1
  H  H25  1  0.47447359  0.75299825  0.33732560  1
  H  H26  1  0.06322912  0.75000523  0.77152650  1
  H  H27  1  0.17756681  0.83203805  0.94159887  1
  H  H28  1  0.17671355  0.66719821  0.94293466  1
  H  H29  1  0.87040238  0.82645503  0.99773165  1
  H  H30  1  0.87139007  0.67203188  0.99693345  1
  H  H31  1  0.97475679  0.74709893  0.16263464  1
  Cd  Cd32  1  0.50000157  0.00000184  0.00000665  1
  Cd  Cd33  1  0.99999975  0.50000203  0.50000460  1
  Sn  Sn34  1  0.99999930  0.00000261  0.50000777  1
  Sn  Sn35  1  0.50000070  0.50000212  0.00000518  1
  Cl  Cl36  1  0.47636885  0.24327800  0.94351694  1
  Cl  Cl37  1  0.20217593  0.00711651  0.18099582  1
  Cl  Cl38  1  0.68350050  0.01079637  0.30602704  1
  Cl  Cl39  1  0.97580056  0.25671878  0.55683476  1
  Cl  Cl40  1  0.31650123  0.98921002  0.69398898  1
  Cl  Cl41  1  0.79782916  0.99288468  0.81901969  1
  Cl  Cl42  1  0.52363749  0.75672689  0.05649694  1
  Cl  Cl43  1  0.70223638  0.49280859  0.31890532  1
  Cl  Cl44  1  0.18359220  0.48924829  0.19402010  1
  Cl  Cl45  1  0.02419591  0.74328488  0.44317952  1
  Cl  Cl46  1  0.29776235  0.50719486  0.68110397  1
  Cl  Cl47  1  0.81640448  0.51075462  0.80598979  1
