# generated using pymatgen
data_CdInH12C2(NCl3)2
_symmetry_space_group_name_H-M   'P 1'
_cell_length_a   7.89642581
_cell_length_b   10.89785712
_cell_length_c   7.38210247
_cell_angle_alpha   89.76615601
_cell_angle_beta   90.63140071
_cell_angle_gamma   90.40445989
_symmetry_Int_Tables_number   1
_chemical_formula_structural   CdInH12C2(NCl3)2
_chemical_formula_sum   'Cd2 In2 H24 C4 N4 Cl12'
_cell_volume   635.20084135
_cell_formula_units_Z   2
loop_
 _symmetry_equiv_pos_site_id
 _symmetry_equiv_pos_as_xyz
  1  'x, y, z'
loop_
 _atom_site_type_symbol
 _atom_site_label
 _atom_site_symmetry_multiplicity
 _atom_site_fract_x
 _atom_site_fract_y
 _atom_site_fract_z
 _atom_site_occupancy
  C  C0  1  0.41911429  0.24890597  0.43544226  1
  C  C1  1  0.92901859  0.24753334  0.07097494  1
  C  C2  1  0.58088410  0.75109536  0.56456977  1
  C  C3  1  0.07098539  0.75247223  0.92903583  1
  N  N4  1  0.58404894  0.24048597  0.53206430  1
  N  N5  1  0.09051643  0.24317079  0.97093217  1
  N  N6  1  0.41595032  0.75951847  0.46794692  1
  N  N7  1  0.90948778  0.75683109  0.02907943  1
  H  H8  1  0.44317074  0.25024557  0.29005185  1
  H  H9  1  0.34358873  0.16824237  0.47045320  1
  H  H10  1  0.35643509  0.33307028  0.47635623  1
  H  H11  1  0.64298703  0.15927028  0.49650631  1
  H  H12  1  0.66197635  0.31275607  0.49469213  1
  H  H13  1  0.56911260  0.24313303  0.67199707  1
  H  H14  1  0.95840245  0.24757650  0.21596311  1
  H  H15  1  0.85317464  0.16675015  0.03596514  1
  H  H16  1  0.86227999  0.33145238  0.03370942  1
  H  H17  1  0.15450906  0.16240141  0.00277552  1
  H  H18  1  0.16735504  0.31637110  0.00916514  1
  H  H19  1  0.07049369  0.24870243  0.83163195  1
  H  H20  1  0.55682707  0.74975583  0.70996013  1
  H  H21  1  0.64356048  0.66692996  0.52365554  1
  H  H22  1  0.65641277  0.83175765  0.52955970  1
  H  H23  1  0.35701437  0.84073489  0.50350561  1
  H  H24  1  0.33802040  0.68724936  0.50531723  1
  H  H25  1  0.43088741  0.75687200  0.32801425  1
  H  H26  1  0.04160119  0.75242917  0.78404766  1
  H  H27  1  0.14682647  0.83325686  0.96404577  1
  H  H28  1  0.13772756  0.66855442  0.96630060  1
  H  H29  1  0.84549259  0.83759966  0.99723789  1
  H  H30  1  0.83265124  0.68362998  0.99084548  1
  H  H31  1  0.92951113  0.75129836  0.16837932  1
  Cd  Cd32  1  0.50000080  0.00000351  0.00000644  1
  Cd  Cd33  1  0.99999398  0.50000230  0.50002122  1
  In  In34  1  0.99999960  0.00000110  0.50000653  1
  In  In35  1  0.49999756  0.50000181  0.00000856  1
  Cl  Cl36  1  0.50072281  0.26894929  0.95257584  1
  Cl  Cl37  1  0.22335826  0.00725297  0.18004944  1
  Cl  Cl38  1  0.67668422  0.00677880  0.29125426  1
  Cl  Cl39  1  0.99318438  0.27945019  0.55271566  1
  Cl  Cl40  1  0.32331595  0.99322448  0.70876000  1
  Cl  Cl41  1  0.77664319  0.99274995  0.81996448  1
  Cl  Cl42  1  0.49928100  0.73105432  0.04743551  1
  Cl  Cl43  1  0.69003711  0.48240981  0.28801589  1
  Cl  Cl44  1  0.22713069  0.48299193  0.18763795  1
  Cl  Cl45  1  0.00681588  0.72055086  0.44729639  1
  Cl  Cl46  1  0.30996455  0.51759251  0.71199416  1
  Cl  Cl47  1  0.77286980  0.51701147  0.81237239  1
