# generated using pymatgen
data_ZrH12C2(I2N)3
_symmetry_space_group_name_H-M   'P 1'
_cell_length_a   9.21176856
_cell_length_b   10.13419076
_cell_length_c   8.70152915
_cell_angle_alpha   92.02635075
_cell_angle_beta   87.75325722
_cell_angle_gamma   90.00926056
_symmetry_Int_Tables_number   1
_chemical_formula_structural   ZrH12C2(I2N)3
_chemical_formula_sum   'Zr2 H24 C4 I12 N6'
_cell_volume   811.18833849
_cell_formula_units_Z   2
loop_
 _symmetry_equiv_pos_site_id
 _symmetry_equiv_pos_as_xyz
  1  'x, y, z'
loop_
 _atom_site_type_symbol
 _atom_site_label
 _atom_site_symmetry_multiplicity
 _atom_site_fract_x
 _atom_site_fract_y
 _atom_site_fract_z
 _atom_site_occupancy
  C  C0  1  0.47489252  0.29696595  0.44907559  1
  C  C1  1  0.97734944  0.22987500  0.04822896  1
  C  C2  1  0.52376845  0.71951919  0.54028127  1
  C  C3  1  0.99652535  0.78929806  0.97719769  1
  N  N4  1  0.53619389  0.27494139  0.60115693  1
  N  N5  1  0.02426564  0.22743493  0.88314862  1
  N  N6  1  0.46585808  0.74656630  0.38742714  1
  N  N7  1  0.96187123  0.79965983  0.14521103  1
  H  H8  1  0.56227430  0.28874705  0.36067235  1
  H  H9  1  0.39174808  0.22186729  0.42707062  1
  H  H10  1  0.42571295  0.39533074  0.45105255  1
  H  H11  1  0.58286321  0.18197557  0.60705527  1
  H  H12  1  0.61657774  0.34337021  0.62933580  1
  H  H13  1  0.45646751  0.28159799  0.68844696  1
  H  H14  1  0.06754004  0.26463940  0.11701604  1
  H  H15  1  0.94588353  0.13005406  0.07992165  1
  H  H16  1  0.88333465  0.29558494  0.06558013  1
  H  H17  1  0.11242074  0.16385555  0.85812066  1
  H  H18  1  0.05551974  0.32006321  0.84674771  1
  H  H19  1  0.94035175  0.19529068  0.81469138  1
  H  H20  1  0.44725151  0.75791686  0.63028963  1
  H  H21  1  0.53604203  0.61272369  0.54951250  1
  H  H22  1  0.63101699  0.76687395  0.54843561  1
  H  H23  1  0.43327007  0.84401691  0.37815276  1
  H  H24  1  0.37691396  0.68730454  0.36119544  1
  H  H25  1  0.54225885  0.72911511  0.29804508  1
  H  H26  1  0.89578246  0.77063085  0.91729775  1
  H  H27  1  0.04703857  0.88174605  0.94120299  1
  H  H28  1  0.07349045  0.70789073  0.95339132  1
  H  H29  1  0.88144730  0.87077460  0.17387814  1
  H  H30  1  0.92286654  0.71070650  0.18705441  1
  H  H31  1  0.05381712  0.82695085  0.20423838  1
  N  N32  1  0.83032004  0.86896346  0.53055709  1
  N  N33  1  0.63416985  0.16485826  0.91145931  1
  Zr  Zr34  1  0.51755843  0.01586214  0.99154910  1
  Zr  Zr35  1  0.00923239  0.48544358  0.50052289  1
  I  I36  1  0.50298185  0.31318894  0.01510005  1
  I  I37  1  0.26550326  0.00220556  0.20836170  1
  I  I38  1  0.68745529  0.02263884  0.26717025  1
  I  I39  1  0.02330543  0.21664065  0.47099819  1
  I  I40  1  0.31144615  0.01934013  0.74201822  1
  I  I41  1  0.76592119  0.00375565  0.70714104  1
  I  I42  1  0.54804940  0.73238720  0.97469777  1
  I  I43  1  0.78060932  0.52072840  0.29366969  1
  I  I44  1  0.20907470  0.52443279  0.23611229  1
  I  I45  1  0.02981781  0.78011282  0.56055478  1
  I  I46  1  0.23744965  0.50520246  0.71838322  1
  I  I47  1  0.80451429  0.49102942  0.75186866  1
