# generated using pymatgen
data_InBiH12C2(NCl3)2
_symmetry_space_group_name_H-M   'P 1'
_cell_length_a   8.26819146
_cell_length_b   11.47617302
_cell_length_c   7.60239279
_cell_angle_alpha   92.64035056
_cell_angle_beta   89.95450422
_cell_angle_gamma   90.06583732
_symmetry_Int_Tables_number   1
_chemical_formula_structural   InBiH12C2(NCl3)2
_chemical_formula_sum   'In2 Bi2 H24 C4 N4 Cl12'
_cell_volume   720.60323525
_cell_formula_units_Z   2
loop_
 _symmetry_equiv_pos_site_id
 _symmetry_equiv_pos_as_xyz
  1  'x, y, z'
loop_
 _atom_site_type_symbol
 _atom_site_label
 _atom_site_symmetry_multiplicity
 _atom_site_fract_x
 _atom_site_fract_y
 _atom_site_fract_z
 _atom_site_occupancy
  C  C0  1  0.41594531  0.24954445  0.42795323  1
  C  C1  1  0.91455516  0.25064258  0.07112399  1
  C  C2  1  0.58413615  0.75050513  0.57202649  1
  C  C3  1  0.08533093  0.74933464  0.92892943  1
  N  N4  1  0.57343067  0.25281225  0.52195152  1
  N  N5  1  0.07167878  0.24715316  0.97616823  1
  N  N6  1  0.42665320  0.74724654  0.47802558  1
  N  N7  1  0.92821599  0.75275211  0.02390483  1
  H  H8  1  0.43957917  0.24728826  0.28611430  1
  H  H9  1  0.34984736  0.17150184  0.46336287  1
  H  H10  1  0.34830657  0.32842534  0.46677111  1
  H  H11  1  0.64117786  0.17890268  0.48641698  1
  H  H12  1  0.63789617  0.32597727  0.48691274  1
  H  H13  1  0.55647974  0.25658446  0.65834519  1
  H  H14  1  0.93870821  0.25300195  0.21279476  1
  H  H15  1  0.84641598  0.17179067  0.03284700  1
  H  H16  1  0.84866514  0.32870568  0.03594964  1
  H  H17  1  0.13588585  0.17389033  0.01075048  1
  H  H18  1  0.13998089  0.32093102  0.01145668  1
  H  H19  1  0.05432240  0.24348220  0.83987881  1
  H  H20  1  0.56048344  0.75273404  0.71386840  1
  H  H21  1  0.65178238  0.67163343  0.53319089  1
  H  H22  1  0.65022721  0.82855714  0.53666328  1
  H  H23  1  0.35890991  0.82115344  0.51356401  1
  H  H24  1  0.36218746  0.67408323  0.51303598  1
  H  H25  1  0.44361188  0.74348723  0.34161825  1
  H  H26  1  0.06116664  0.74702145  0.78726515  1
  H  H27  1  0.15344128  0.82818905  0.96726789  1
  H  H28  1  0.15125613  0.67127023  0.96403619  1
  H  H29  1  0.86395343  0.82599840  0.98936592  1
  H  H30  1  0.85995614  0.67895732  0.98858512  1
  H  H31  1  0.94558604  0.75640758  0.16018861  1
  In  In32  1  0.50003263  0.00002095  0.99998529  1
  In  In33  1  0.00004161  0.50000374  0.50003393  1
  Bi  Bi34  1  0.00003256  0.00000142  0.50001051  1
  Bi  Bi35  1  0.49997506  0.50000966  0.00000484  1
  Cl  Cl36  1  0.48528685  0.26522238  0.93063384  1
  Cl  Cl37  1  0.16499703  0.02380655  0.19417797  1
  Cl  Cl38  1  0.71016976  0.01576949  0.33623175  1
  Cl  Cl39  1  0.98531507  0.23482769  0.56768091  1
  Cl  Cl40  1  0.28988958  0.98424852  0.66380144  1
  Cl  Cl41  1  0.83512023  0.97618348  0.80585278  1
  Cl  Cl42  1  0.51464592  0.73481482  0.06929939  1
  Cl  Cl43  1  0.66574641  0.47655502  0.30503055  1
  Cl  Cl44  1  0.21012671  0.48332339  0.16391651  1
  Cl  Cl45  1  0.01475592  0.76517443  0.43233937  1
  Cl  Cl46  1  0.33432130  0.52351594  0.69493061  1
  Cl  Cl47  1  0.78979361  0.51663569  0.83603332  1
