# generated using pymatgen
data_TlInH12C2(NCl3)2
_symmetry_space_group_name_H-M   'P 1'
_cell_length_a   7.92900416
_cell_length_b   11.24595754
_cell_length_c   7.55515166
_cell_angle_alpha   85.51656910
_cell_angle_beta   89.99917625
_cell_angle_gamma   90.00681504
_symmetry_Int_Tables_number   1
_chemical_formula_structural   TlInH12C2(NCl3)2
_chemical_formula_sum   'Tl2 In2 H24 C4 N4 Cl12'
_cell_volume   671.62566237
_cell_formula_units_Z   2
loop_
 _symmetry_equiv_pos_site_id
 _symmetry_equiv_pos_as_xyz
  1  'x, y, z'
loop_
 _atom_site_type_symbol
 _atom_site_label
 _atom_site_symmetry_multiplicity
 _atom_site_fract_x
 _atom_site_fract_y
 _atom_site_fract_z
 _atom_site_occupancy
  C  C0  1  0.39993109  0.25088514  0.41096690  1
  C  C1  1  0.89994098  0.24917090  0.08923938  1
  C  C2  1  0.60017418  0.74916187  0.58900243  1
  C  C3  1  0.09995984  0.75082376  0.91081419  1
  N  N4  1  0.55443074  0.24656476  0.52173745  1
  N  N5  1  0.05437237  0.25342813  0.97836128  1
  N  N6  1  0.44566177  0.75345367  0.47824866  1
  N  N7  1  0.94552615  0.74650695  0.02170007  1
  H  H8  1  0.43692802  0.25280465  0.27131279  1
  H  H9  1  0.32627850  0.17038004  0.44598301  1
  H  H10  1  0.32800427  0.33042949  0.43663443  1
  H  H11  1  0.62479221  0.17249022  0.49538815  1
  H  H12  1  0.62758690  0.32250109  0.49224597  1
  H  H13  1  0.52598929  0.24050849  0.65728093  1
  H  H14  1  0.93705256  0.24728592  0.22887206  1
  H  H15  1  0.82791586  0.16963687  0.06370619  1
  H  H16  1  0.82635284  0.32969139  0.05425102  1
  H  H17  1  0.12746369  0.17744389  0.00782465  1
  H  H18  1  0.12482693  0.32745300  0.00460851  1
  H  H19  1  0.02584524  0.25945113  0.84282673  1
  H  H20  1  0.56317807  0.74724146  0.72865648  1
  H  H21  1  0.67212929  0.66964266  0.56333349  1
  H  H22  1  0.67379139  0.82969185  0.55397915  1
  H  H23  1  0.37528756  0.82752504  0.50457513  1
  H  H24  1  0.37253528  0.67751743  0.50774174  1
  H  H25  1  0.47410409  0.75950859  0.34268587  1
  H  H26  1  0.06285202  0.75275577  0.77118206  1
  H  H27  1  0.17195628  0.83037318  0.93641379  1
  H  H28  1  0.17358048  0.67032062  0.94574529  1
  H  H29  1  0.87238905  0.82246549  0.99226163  1
  H  H30  1  0.87513044  0.67245880  0.99542629  1
  H  H31  1  0.97406478  0.74047565  0.15723272  1
  In  In32  1  0.49998756  0.00000622  0.99998948  1
  In  In33  1  0.00002076  0.50000662  0.50001845  1
  Tl  Tl34  1  0.00000548  0.00000478  0.50001698  1
  Tl  Tl35  1  0.49996932  0.49999896  0.00003003  1
  Cl  Cl36  1  0.47618021  0.22691795  0.93455485  1
  Cl  Cl37  1  0.21197140  0.00417410  0.14877056  1
  Cl  Cl38  1  0.64407354  0.01855642  0.29836526  1
  Cl  Cl39  1  0.97620763  0.27308564  0.56552776  1
  Cl  Cl40  1  0.35590006  0.98143460  0.70162293  1
  Cl  Cl41  1  0.78802393  0.99582449  0.85126020  1
  Cl  Cl42  1  0.52375944  0.77308636  0.06539524  1
  Cl  Cl43  1  0.71202763  0.49578981  0.35121180  1
  Cl  Cl44  1  0.14411702  0.48143773  0.20165809  1
  Cl  Cl45  1  0.02387056  0.72692263  0.43449142  1
  Cl  Cl46  1  0.28801830  0.50424611  0.64879669  1
  Cl  Cl47  1  0.85585875  0.51853796  0.79834840  1
