# generated using pymatgen
data_InH12AuC2(NCl3)2
_symmetry_space_group_name_H-M   'P 1'
_cell_length_a   7.36000725
_cell_length_b   11.53178880
_cell_length_c   7.74836809
_cell_angle_alpha   84.12797821
_cell_angle_beta   89.66599497
_cell_angle_gamma   89.82917503
_symmetry_Int_Tables_number   1
_chemical_formula_structural   InH12AuC2(NCl3)2
_chemical_formula_sum   'In2 H24 Au2 C4 N4 Cl12'
_cell_volume   654.17169546
_cell_formula_units_Z   2
loop_
 _symmetry_equiv_pos_site_id
 _symmetry_equiv_pos_as_xyz
  1  'x, y, z'
loop_
 _atom_site_type_symbol
 _atom_site_label
 _atom_site_symmetry_multiplicity
 _atom_site_fract_x
 _atom_site_fract_y
 _atom_site_fract_z
 _atom_site_occupancy
  C  C0  1  0.40154846  0.25325940  0.38521570  1
  C  C1  1  0.93463746  0.25157424  0.11867371  1
  C  C2  1  0.56566461  0.75164789  0.62118091  1
  C  C3  1  0.10128596  0.75186536  0.88344963  1
  N  N4  1  0.54008124  0.24194806  0.52398907  1
  N  N5  1  0.07924672  0.26299886  0.98456892  1
  N  N6  1  0.42091796  0.76110410  0.48869228  1
  N  N7  1  0.96056284  0.73876444  0.02159376  1
  H  H8  1  0.47170469  0.26286043  0.25973180  1
  H  H9  1  0.31638662  0.17530909  0.39773320  1
  H  H10  1  0.32107595  0.33133028  0.39971927  1
  H  H11  1  0.62202985  0.17001813  0.51319276  1
  H  H12  1  0.62364737  0.31478302  0.51155846  1
  H  H13  1  0.48664406  0.23333614  0.64934718  1
  H  H14  1  0.99721953  0.24350680  0.24718968  1
  H  H15  1  0.85534419  0.17373945  0.10223039  1
  H  H16  1  0.84703797  0.32869951  0.10369671  1
  H  H17  1  0.16427695  0.19062571  0.99817780  1
  H  H18  1  0.15735946  0.33710390  0.99780387  1
  H  H19  1  0.02757267  0.26921991  0.85864886  1
  H  H20  1  0.50332852  0.74442892  0.75046555  1
  H  H21  1  0.64644890  0.67391185  0.60551061  1
  H  H22  1  0.65182267  0.82909788  0.60368416  1
  H  H23  1  0.34108195  0.83500846  0.50134701  1
  H  H24  1  0.33759821  0.68822727  0.50424781  1
  H  H25  1  0.47259729  0.76686689  0.36219239  1
  H  H26  1  0.03308729  0.76169419  0.75767851  1
  H  H27  1  0.17952022  0.83024585  0.89929152  1
  H  H28  1  0.18806187  0.67436874  0.89540688  1
  H  H29  1  0.87438400  0.81059311  0.00953094  1
  H  H30  1  0.88168515  0.66595583  0.00978674  1
  H  H31  1  0.01226846  0.73038006  0.14708717  1
  In  In32  1  0.53349284  0.99648550  0.03774910  1
  In  In33  1  0.96620897  0.49696809  0.53647865  1
  Au  Au34  1  0.96566518  0.99784366  0.45851055  1
  Au  Au35  1  0.53051320  0.49767887  0.96295927  1
  Cl  Cl36  1  0.50806966  0.21008029  0.93556038  1
  Cl  Cl37  1  0.21083132  0.99834110  0.11563706  1
  Cl  Cl38  1  0.67136308  0.01304123  0.34493736  1
  Cl  Cl39  1  0.96911595  0.27867956  0.58633493  1
  Cl  Cl40  1  0.23950204  0.99101969  0.60414175  1
  Cl  Cl41  1  0.79849517  0.98726427  0.84982834  1
  Cl  Cl42  1  0.53155986  0.77801272  0.09018319  1
  Cl  Cl43  1  0.69928393  0.48977768  0.35290577  1
  Cl  Cl44  1  0.25546813  0.49113832  0.10995893  1
  Cl  Cl45  1  0.99388125  0.70976805  0.43323039  1
  Cl  Cl46  1  0.28574391  0.49773133  0.62371300  1
  Cl  Cl47  1  0.82470012  0.51177413  0.84554470  1
