# generated using pymatgen
data_InH12PtC2(NCl3)2
_symmetry_space_group_name_H-M   'P 1'
_cell_length_a   7.22176256
_cell_length_b   10.82565486
_cell_length_c   7.87388393
_cell_angle_alpha   93.36864205
_cell_angle_beta   85.37581221
_cell_angle_gamma   90.04656530
_symmetry_Int_Tables_number   1
_chemical_formula_structural   InH12PtC2(NCl3)2
_chemical_formula_sum   'In2 H24 Pt2 C4 N4 Cl12'
_cell_volume   612.51397062
_cell_formula_units_Z   2
loop_
 _symmetry_equiv_pos_site_id
 _symmetry_equiv_pos_as_xyz
  1  'x, y, z'
loop_
 _atom_site_type_symbol
 _atom_site_label
 _atom_site_symmetry_multiplicity
 _atom_site_fract_x
 _atom_site_fract_y
 _atom_site_fract_z
 _atom_site_occupancy
  C  C0  1  0.48355910  0.24961832  0.40265393  1
  C  C1  1  0.97786027  0.24268807  0.06709018  1
  C  C2  1  0.51645929  0.75038246  0.59734330  1
  C  C3  1  0.02210635  0.75731342  0.93293595  1
  N  N4  1  0.54680470  0.25530849  0.57740304  1
  N  N5  1  0.04323961  0.26027003  0.88683795  1
  N  N6  1  0.45317716  0.74469406  0.42260771  1
  N  N7  1  0.95677529  0.73972823  0.11318062  1
  H  H8  1  0.60578902  0.24030131  0.31184145  1
  H  H9  1  0.39109631  0.17020612  0.38917665  1
  H  H10  1  0.41000260  0.33550520  0.38494996  1
  H  H11  1  0.61838562  0.17593257  0.60225776  1
  H  H12  1  0.63569922  0.32884942  0.59656897  1
  H  H13  1  0.43829593  0.26731852  0.67048239  1
  H  H14  1  0.09825979  0.23979855  0.14224669  1
  H  H15  1  0.90168768  0.15543285  0.07395203  1
  H  H16  1  0.88777485  0.32059290  0.11433854  1
  H  H17  1  0.11701655  0.18358869  0.83031624  1
  H  H18  1  0.12808315  0.33709155  0.87520341  1
  H  H19  1  0.93432526  0.27390255  0.81264144  1
  H  H20  1  0.39419518  0.75969604  0.68815667  1
  H  H21  1  0.58999613  0.66449712  0.61505938  1
  H  H22  1  0.60889859  0.82979338  0.61084026  1
  H  H23  1  0.38163406  0.82406240  0.39774090  1
  H  H24  1  0.36434672  0.67115483  0.40341243  1
  H  H25  1  0.56175377  0.73269414  0.32951055  1
  H  H26  1  0.90170129  0.76019790  0.85778731  1
  H  H27  1  0.09827129  0.84458045  0.92606238  1
  H  H28  1  0.11220732  0.67941875  0.88566978  1
  H  H29  1  0.88298198  0.81640728  0.16972339  1
  H  H30  1  0.87192029  0.66289650  0.12482923  1
  H  H31  1  0.06568581  0.72609568  0.18736322  1
  In  In32  1  0.49999646  0.00000107  0.99999569  1
  In  In33  1  0.99998804  0.50000654  0.50002725  1
  Pt  Pt34  1  0.00000335  0.00000241  0.50000232  1
  Pt  Pt35  1  0.50000424  0.50000589  0.00000321  1
  Cl  Cl36  1  0.47676523  0.28380606  0.98375002  1
  Cl  Cl37  1  0.21155916  0.96656453  0.26296782  1
  Cl  Cl38  1  0.75524583  0.97540741  0.32113961  1
  Cl  Cl39  1  0.98445237  0.27320148  0.48389876  1
  Cl  Cl40  1  0.24476015  0.02460005  0.67886725  1
  Cl  Cl41  1  0.78844848  0.03343704  0.73703596  1
  Cl  Cl42  1  0.52323106  0.71620560  0.01625284  1
  Cl  Cl43  1  0.73269737  0.51189480  0.32014262  1
  Cl  Cl44  1  0.22675754  0.51464019  0.18019432  1
  Cl  Cl45  1  0.01555719  0.72680758  0.51612797  1
  Cl  Cl46  1  0.26730261  0.48810882  0.67988123  1
  Cl  Cl47  1  0.77326445  0.48537102  0.81982599  1
