# generated using pymatgen
data_InH12IrC2(NCl3)2
_symmetry_space_group_name_H-M   'P 1'
_cell_length_a   7.75596542
_cell_length_b   10.84025072
_cell_length_c   7.40877515
_cell_angle_alpha   94.39237478
_cell_angle_beta   89.99105958
_cell_angle_gamma   89.97799732
_symmetry_Int_Tables_number   1
_chemical_formula_structural   InH12IrC2(NCl3)2
_chemical_formula_sum   'In2 H24 Ir2 C4 N4 Cl12'
_cell_volume   621.07514048
_cell_formula_units_Z   2
loop_
 _symmetry_equiv_pos_site_id
 _symmetry_equiv_pos_as_xyz
  1  'x, y, z'
loop_
 _atom_site_type_symbol
 _atom_site_label
 _atom_site_symmetry_multiplicity
 _atom_site_fract_x
 _atom_site_fract_y
 _atom_site_fract_z
 _atom_site_occupancy
  C  C0  1  0.39749820  0.25036242  0.41226067  1
  C  C1  1  0.89841515  0.24984977  0.08851308  1
  C  C2  1  0.60249985  0.74964291  0.58775010  1
  C  C3  1  0.10158807  0.75015308  0.91149953  1
  N  N4  1  0.55447154  0.25352990  0.52593487  1
  N  N5  1  0.05486615  0.24649845  0.97399817  1
  N  N6  1  0.44552613  0.74647546  0.47407654  1
  N  N7  1  0.94513881  0.75350023  0.02601682  1
  H  H8  1  0.43589683  0.24827128  0.27010532  1
  H  H9  1  0.32191308  0.16899394  0.43866001  1
  H  H10  1  0.32387010  0.33469508  0.44684680  1
  H  H11  1  0.62908496  0.17473583  0.49622209  1
  H  H12  1  0.62759248  0.32982377  0.50019807  1
  H  H13  1  0.52462901  0.26025064  0.66413518  1
  H  H14  1  0.93750861  0.25197924  0.23046028  1
  H  H15  1  0.82460493  0.16556639  0.05450023  1
  H  H16  1  0.82272150  0.33127559  0.06247553  1
  H  H17  1  0.12806063  0.17013249  0.99932894  1
  H  H18  1  0.12961447  0.32521956  0.00332390  1
  H  H19  1  0.02440871  0.23979350  0.83593929  1
  H  H20  1  0.56410129  0.75173631  0.72990585  1
  H  H21  1  0.67612642  0.66530934  0.55316641  1
  H  H22  1  0.67808612  0.83101035  0.56134846  1
  H  H23  1  0.37091345  0.82526974  0.50378885  1
  H  H24  1  0.37240488  0.67018197  0.49981425  1
  H  H25  1  0.47536849  0.73975404  0.33587586  1
  H  H26  1  0.06249266  0.74802549  0.76955314  1
  H  H27  1  0.17539682  0.83443693  0.94551448  1
  H  H28  1  0.17728421  0.66872753  0.93753265  1
  H  H29  1  0.87194059  0.82986490  0.00068899  1
  H  H30  1  0.87039303  0.67477790  0.99668986  1
  H  H31  1  0.97559766  0.76020453  0.16407509  1
  In  In32  1  0.50000308  0.00000224  0.00000613  1
  In  In33  1  0.99999877  0.50000191  0.50000359  1
  Ir  Ir34  1  0.00000020  0.00000158  0.50000749  1
  Ir  Ir35  1  0.50000066  0.50000232  0.00000476  1
  Cl  Cl36  1  0.47753736  0.28205544  0.94457773  1
  Cl  Cl37  1  0.14729656  0.01314173  0.21984876  1
  Cl  Cl38  1  0.73181435  0.00074685  0.34383131  1
  Cl  Cl39  1  0.97695411  0.21792704  0.55574154  1
  Cl  Cl40  1  0.26818632  0.99925741  0.65618345  1
  Cl  Cl41  1  0.85270489  0.98685992  0.78016673  1
  Cl  Cl42  1  0.52246449  0.71794922  0.05543322  1
  Cl  Cl43  1  0.64713717  0.48684387  0.28019114  1
  Cl  Cl44  1  0.23169091  0.49930865  0.15606476  1
  Cl  Cl45  1  0.02304560  0.78207591  0.44427401  1
  Cl  Cl46  1  0.35286428  0.51316049  0.71981827  1
  Cl  Cl47  1  0.76831014  0.50069516  0.84394441  1
