# generated using pymatgen
data_InSbH12C2(NCl3)2
_symmetry_space_group_name_H-M   'P 1'
_cell_length_a   8.23506245
_cell_length_b   11.35838685
_cell_length_c   7.56839012
_cell_angle_alpha   92.33506780
_cell_angle_beta   90.00146134
_cell_angle_gamma   90.00710422
_symmetry_Int_Tables_number   1
_chemical_formula_structural   InSbH12C2(NCl3)2
_chemical_formula_sum   'In2 Sb2 H24 C4 N4 Cl12'
_cell_volume   707.33686131
_cell_formula_units_Z   2
loop_
 _symmetry_equiv_pos_site_id
 _symmetry_equiv_pos_as_xyz
  1  'x, y, z'
loop_
 _atom_site_type_symbol
 _atom_site_label
 _atom_site_symmetry_multiplicity
 _atom_site_fract_x
 _atom_site_fract_y
 _atom_site_fract_z
 _atom_site_occupancy
  C  C0  1  0.42020082  0.24908798  0.43414479  1
  C  C1  1  0.91982112  0.25091084  0.06570584  1
  C  C2  1  0.57986975  0.75097605  0.56581822  1
  C  C3  1  0.08005716  0.74902882  0.93433691  1
  N  N4  1  0.57855176  0.25298324  0.52835931  1
  N  N5  1  0.07824998  0.24705180  0.97165554  1
  N  N6  1  0.42151147  0.74708993  0.47161529  1
  N  N7  1  0.92164282  0.75282857  0.02841985  1
  H  H8  1  0.44363213  0.24713081  0.29179081  1
  H  H9  1  0.35442071  0.17006116  0.47030507  1
  H  H10  1  0.35172441  0.32851718  0.47268682  1
  H  H11  1  0.64736813  0.17872554  0.49323254  1
  H  H12  1  0.64293238  0.32683896  0.49248716  1
  H  H13  1  0.56203141  0.25702332  0.66528368  1
  H  H14  1  0.94318247  0.25301867  0.20810225  1
  H  H15  1  0.85145760  0.17140836  0.02728880  1
  H  H16  1  0.85399182  0.32985370  0.02934950  1
  H  H17  1  0.14261525  0.17322420  0.00758355  1
  H  H18  1  0.14701360  0.32132658  0.00675016  1
  H  H19  1  0.06179242  0.24297239  0.83467367  1
  H  H20  1  0.55643090  0.75292494  0.70817912  1
  H  H21  1  0.64834200  0.67155133  0.52727142  1
  H  H22  1  0.64564412  0.83000628  0.52967229  1
  H  H23  1  0.35270141  0.82134106  0.50674702  1
  H  H24  1  0.35713299  0.67323285  0.50744628  1
  H  H25  1  0.43804072  0.74306507  0.33467396  1
  H  H26  1  0.05668656  0.74697090  0.79195003  1
  H  H27  1  0.14839944  0.82853580  0.97281754  1
  H  H28  1  0.14591706  0.67008542  0.97063292  1
  H  H29  1  0.85720369  0.82662127  0.99252352  1
  H  H30  1  0.85292333  0.67851862  0.99330939  1
  H  H31  1  0.93811505  0.75690418  0.16538743  1
  In  In32  1  0.50001399  0.00002030  0.99994380  1
  In  In33  1  0.00001299  0.50002855  0.50009500  1
  Sb  Sb34  1  0.00004389  0.00002951  0.49996217  1
  Sb  Sb35  1  0.49997133  0.50000607  0.00007108  1
  Cl  Cl36  1  0.48881121  0.26743220  0.93796448  1
  Cl  Cl37  1  0.16836547  0.02272091  0.20323846  1
  Cl  Cl38  1  0.71916590  0.01626099  0.33105181  1
  Cl  Cl39  1  0.98904816  0.23264380  0.56190183  1
  Cl  Cl40  1  0.28090558  0.98377781  0.66890104  1
  Cl  Cl41  1  0.83187821  0.97727294  0.79661124  1
  Cl  Cl42  1  0.51113704  0.73261453  0.06201058  1
  Cl  Cl43  1  0.66837707  0.47734697  0.29673966  1
  Cl  Cl44  1  0.21907896  0.48374256  0.16900541  1
  Cl  Cl45  1  0.01102307  0.76743729  0.43809640  1
  Cl  Cl46  1  0.33178231  0.52272358  0.70341978  1
  Cl  Cl47  1  0.78080407  0.51620442  0.83108317  1
