# generated using pymatgen
data_SnH12PbC2(NCl3)2
_symmetry_space_group_name_H-M   'P 1'
_cell_length_a   8.10814218
_cell_length_b   11.24902841
_cell_length_c   7.49232741
_cell_angle_alpha   89.91468088
_cell_angle_beta   89.87197388
_cell_angle_gamma   89.97041562
_symmetry_Int_Tables_number   1
_chemical_formula_structural   SnH12PbC2(NCl3)2
_chemical_formula_sum   'Sn2 H24 Pb2 C4 N4 Cl12'
_cell_volume   683.36305205
_cell_formula_units_Z   2
loop_
 _symmetry_equiv_pos_site_id
 _symmetry_equiv_pos_as_xyz
  1  'x, y, z'
loop_
 _atom_site_type_symbol
 _atom_site_label
 _atom_site_symmetry_multiplicity
 _atom_site_fract_x
 _atom_site_fract_y
 _atom_site_fract_z
 _atom_site_occupancy
  C  C0  1  0.40936716  0.24899607  0.43073032  1
  C  C1  1  0.90928443  0.24994852  0.06970543  1
  C  C2  1  0.59077693  0.74959885  0.56995801  1
  C  C3  1  0.09095342  0.75103258  0.93055140  1
  N  N4  1  0.57178661  0.24877548  0.52115608  1
  N  N5  1  0.07144956  0.25039854  0.97786962  1
  N  N6  1  0.42867194  0.74985558  0.47884805  1
  N  N7  1  0.92841052  0.75114433  0.02159612  1
  H  H8  1  0.42985126  0.24912087  0.28634091  1
  H  H9  1  0.34232010  0.16898159  0.47008443  1
  H  H10  1  0.34177948  0.32874498  0.47039652  1
  H  H11  1  0.63895644  0.17417935  0.48232287  1
  H  H12  1  0.63797413  0.32409479  0.48370013  1
  H  H13  1  0.55783481  0.24791903  0.65961641  1
  H  H14  1  0.93016831  0.24991745  0.21394354  1
  H  H15  1  0.84213499  0.17003071  0.03072222  1
  H  H16  1  0.84168527  0.32985262  0.03083747  1
  H  H17  1  0.13926329  0.17589287  0.01554163  1
  H  H18  1  0.13732154  0.32567823  0.01522415  1
  H  H19  1  0.05709469  0.25038639  0.83947026  1
  H  H20  1  0.56983552  0.75010491  0.71427805  1
  H  H21  1  0.65806601  0.66960204  0.53108050  1
  H  H22  1  0.65828331  0.82941843  0.53026118  1
  H  H23  1  0.36274200  0.82513129  0.51644698  1
  H  H24  1  0.36080489  0.67534227  0.51668804  1
  H  H25  1  0.44310224  0.74983160  0.34036658  1
  H  H26  1  0.07065613  0.75073903  0.78621863  1
  H  H27  1  0.15849485  0.83077203  0.96960951  1
  H  H28  1  0.15794110  0.67101253  0.96997515  1
  H  H29  1  0.86210016  0.82645365  0.98430272  1
  H  H30  1  0.86144016  0.67655345  0.98314595  1
  H  H31  1  0.94226142  0.75035442  0.15999117  1
  Sn  Sn32  1  0.50049700  0.00071437  0.99969714  1
  Sn  Sn33  1  0.99866176  0.50057410  0.49709824  1
  Pb  Pb34  1  0.00202344  0.00031055  0.50222380  1
  Pb  Pb35  1  0.49894278  0.50058309  0.99946957  1
  Cl  Cl36  1  0.48355588  0.24680154  0.93730909  1
  Cl  Cl37  1  0.20228046  0.01847243  0.18198171  1
  Cl  Cl38  1  0.70099930  0.01764363  0.31494223  1
  Cl  Cl39  1  0.98368495  0.25095251  0.56263350  1
  Cl  Cl40  1  0.31541864  0.98227791  0.69217903  1
  Cl  Cl41  1  0.80563591  0.98271579  0.81519502  1
  Cl  Cl42  1  0.51551679  0.75150194  0.06263904  1
  Cl  Cl43  1  0.68789428  0.48216611  0.31363717  1
  Cl  Cl44  1  0.18814273  0.48218033  0.18896540  1
  Cl  Cl45  1  0.01713030  0.74632194  0.43727125  1
  Cl  Cl46  1  0.29211536  0.51779334  0.67969270  1
  Cl  Cl47  1  0.80471148  0.51920422  0.81438171  1
