# generated using pymatgen
data_SnHgH12C2(NCl3)2
_symmetry_space_group_name_H-M   'P 1'
_cell_length_a   7.70622569
_cell_length_b   10.97617807
_cell_length_c   7.46537122
_cell_angle_alpha   90.14604083
_cell_angle_beta   90.00276430
_cell_angle_gamma   90.00473902
_symmetry_Int_Tables_number   1
_chemical_formula_structural   SnHgH12C2(NCl3)2
_chemical_formula_sum   'Sn2 Hg2 H24 C4 N4 Cl12'
_cell_volume   631.45566390
_cell_formula_units_Z   2
loop_
 _symmetry_equiv_pos_site_id
 _symmetry_equiv_pos_as_xyz
  1  'x, y, z'
loop_
 _atom_site_type_symbol
 _atom_site_label
 _atom_site_symmetry_multiplicity
 _atom_site_fract_x
 _atom_site_fract_y
 _atom_site_fract_z
 _atom_site_occupancy
  C  C0  1  0.39352013  0.24987596  0.41183809  1
  C  C1  1  0.89454293  0.25027630  0.08906727  1
  C  C2  1  0.60647692  0.75012972  0.58817428  1
  C  C3  1  0.10546167  0.74972529  0.91094463  1
  N  N4  1  0.55086072  0.25019731  0.52522163  1
  N  N5  1  0.05126107  0.24981240  0.97481002  1
  N  N6  1  0.44913622  0.74980872  0.47479098  1
  N  N7  1  0.94874449  0.75018570  0.02520340  1
  H  H8  1  0.43293190  0.25044161  0.27125651  1
  H  H9  1  0.31773928  0.16850016  0.44115350  1
  H  H10  1  0.31885822  0.33177183  0.44137444  1
  H  H11  1  0.62563254  0.17371629  0.49806513  1
  H  H12  1  0.62475903  0.32668028  0.49655723  1
  H  H13  1  0.52065205  0.25118514  0.66166295  1
  H  H14  1  0.93474659  0.24974099  0.22941211  1
  H  H15  1  0.81957190  0.16841321  0.06009189  1
  H  H16  1  0.81872809  0.33170166  0.06015261  1
  H  H17  1  0.12516751  0.17328467  0.00313202  1
  H  H18  1  0.12627363  0.32624799  0.00154816  1
  H  H19  1  0.02036289  0.24881757  0.83852644  1
  H  H20  1  0.56706532  0.74956661  0.72875591  1
  H  H21  1  0.68113671  0.66823246  0.55864044  1
  H  H22  1  0.68225978  0.83150414  0.55885640  1
  H  H23  1  0.37436500  0.82629001  0.50194753  1
  H  H24  1  0.37523757  0.67332595  0.50345579  1
  H  H25  1  0.47934481  0.74882067  0.33834968  1
  H  H26  1  0.06525663  0.75026217  0.77060024  1
  H  H27  1  0.18043163  0.83158847  0.93992213  1
  H  H28  1  0.18127793  0.66830005  0.93985567  1
  H  H29  1  0.87483515  0.82671232  0.99688322  1
  H  H30  1  0.87373440  0.67374904  0.99846459  1
  H  H31  1  0.97964358  0.75118039  0.16148673  1
  Sn  Sn32  1  0.50000291  0.00000251  0.00000820  1
  Sn  Sn33  1  0.99999775  0.50000212  0.50000180  1
  Hg  Hg34  1  0.00000126  0.00000254  0.50000848  1
  Hg  Hg35  1  0.49999934  0.50000354  0.00000097  1
  Cl  Cl36  1  0.47371152  0.25143234  0.94225338  1
  Cl  Cl37  1  0.18512358  0.00976231  0.18855493  1
  Cl  Cl38  1  0.69639233  0.00869895  0.31933906  1
  Cl  Cl39  1  0.97304475  0.24856671  0.55825587  1
  Cl  Cl40  1  0.30360954  0.99130640  0.68067839  1
  Cl  Cl41  1  0.81488155  0.99023725  0.81146360  1
  Cl  Cl42  1  0.52629206  0.74857398  0.05775970  1
  Cl  Cl43  1  0.68505015  0.49015378  0.31142809  1
  Cl  Cl44  1  0.19643490  0.49140906  0.18066659  1
  Cl  Cl45  1  0.02695221  0.75143568  0.44175879  1
  Cl  Cl46  1  0.31494815  0.50985137  0.68857748  1
  Cl  Cl47  1  0.80356543  0.50859464  0.81933966  1
