# generated using pymatgen
data_SnH12PtC2(NCl3)2
_symmetry_space_group_name_H-M   'P 1'
_cell_length_a   8.00800151
_cell_length_b   9.99702964
_cell_length_c   8.20433463
_cell_angle_alpha   88.87158041
_cell_angle_beta   104.03682474
_cell_angle_gamma   91.36764343
_symmetry_Int_Tables_number   1
_chemical_formula_structural   SnH12PtC2(NCl3)2
_chemical_formula_sum   'Sn2 H24 Pt2 C4 N4 Cl12'
_cell_volume   636.94883752
_cell_formula_units_Z   2
loop_
 _symmetry_equiv_pos_site_id
 _symmetry_equiv_pos_as_xyz
  1  'x, y, z'
loop_
 _atom_site_type_symbol
 _atom_site_label
 _atom_site_symmetry_multiplicity
 _atom_site_fract_x
 _atom_site_fract_y
 _atom_site_fract_z
 _atom_site_occupancy
  C  C0  1  0.43026669  0.25926789  0.42388851  1
  C  C1  1  0.95778327  0.22617794  0.12091385  1
  C  C2  1  0.55717122  0.77123244  0.60686240  1
  C  C3  1  0.05717717  0.75183798  0.85120494  1
  N  N4  1  0.55999120  0.24207040  0.58534030  1
  N  N5  1  0.04995670  0.24116000  0.98521747  1
  N  N6  1  0.43473677  0.73465593  0.44655691  1
  N  N7  1  0.95538378  0.76640114  0.97809510  1
  H  H8  1  0.49568736  0.26044852  0.32126137  1
  H  H9  1  0.33675565  0.17624100  0.40982590  1
  H  H10  1  0.36822254  0.35502459  0.42665930  1
  H  H11  1  0.61992510  0.15043713  0.59656742  1
  H  H12  1  0.65519770  0.31618054  0.59481974  1
  H  H13  1  0.50666329  0.25008613  0.68823545  1
  H  H14  1  0.05266384  0.22089852  0.24148311  1
  H  H15  1  0.88255802  0.13300648  0.10263811  1
  H  H16  1  0.87152598  0.31046053  0.11373932  1
  H  H17  1  0.13461700  0.16246586  0.99589657  1
  H  H18  1  0.12210192  0.33022165  0.99751835  1
  H  H19  1  0.96836525  0.23676215  0.86652312  1
  H  H20  1  0.48538509  0.77497240  0.70429138  1
  H  H21  1  0.65467044  0.69425839  0.63922452  1
  H  H22  1  0.61624518  0.86845331  0.59093120  1
  H  H23  1  0.34504680  0.80877989  0.40671905  1
  H  H24  1  0.36757903  0.64766549  0.46461753  1
  H  H25  1  0.49634716  0.71934020  0.35063562  1
  H  H26  1  0.97021203  0.72262121  0.73205702  1
  H  H27  1  0.11818408  0.84832004  0.83425557  1
  H  H28  1  0.15360268  0.67506200  0.89351570  1
  H  H29  1  0.87303585  0.84753190  0.94310405  1
  H  H30  1  0.88109851  0.68028545  0.98482379  1
  H  H31  1  0.03116657  0.78754191  0.09635070  1
  Sn  Sn32  1  0.50205234  0.99004148  0.00244406  1
  Sn  Sn33  1  0.99132515  0.50160956  0.38016493  1
  Pt  Pt34  1  0.98943434  0.00617274  0.47871370  1
  Pt  Pt35  1  0.51398524  0.49414864  0.02510259  1
  Cl  Cl36  1  0.45122985  0.27119651  0.94870630  1
  Cl  Cl37  1  0.25262206  0.98292128  0.15909365  1
  Cl  Cl38  1  0.70102664  0.01831840  0.33210026  1
  Cl  Cl39  1  0.98195607  0.22517151  0.56133841  1
  Cl  Cl40  1  0.27055893  0.99533909  0.63831846  1
  Cl  Cl41  1  0.76416633  0.02100743  0.82734593  1
  Cl  Cl42  1  0.58102618  0.71449776  0.10197601  1
  Cl  Cl43  1  0.73334803  0.50736505  0.49301373  1
  Cl  Cl44  1  0.27097924  0.50306195  0.13363736  1
  Cl  Cl45  1  0.00493314  0.78897160  0.38184250  1
  Cl  Cl46  1  0.23352544  0.51957140  0.63542900  1
  Cl  Cl47  1  0.74853084  0.49081489  0.90729635  1
