# generated using pymatgen
data_BaSnH12C2(NCl3)2
_symmetry_space_group_name_H-M   'P 1'
_cell_length_a   8.22458644
_cell_length_b   11.54891819
_cell_length_c   7.56881998
_cell_angle_alpha   89.07505933
_cell_angle_beta   89.99792053
_cell_angle_gamma   89.99886468
_symmetry_Int_Tables_number   1
_chemical_formula_structural   BaSnH12C2(NCl3)2
_chemical_formula_sum   'Ba2 Sn2 H24 C4 N4 Cl12'
_cell_volume   718.83126451
_cell_formula_units_Z   2
loop_
 _symmetry_equiv_pos_site_id
 _symmetry_equiv_pos_as_xyz
  1  'x, y, z'
loop_
 _atom_site_type_symbol
 _atom_site_label
 _atom_site_symmetry_multiplicity
 _atom_site_fract_x
 _atom_site_fract_y
 _atom_site_fract_z
 _atom_site_occupancy
  C  C0  1  0.39658886  0.25030044  0.41901934  1
  C  C1  1  0.89678012  0.24969491  0.08123419  1
  C  C2  1  0.60340992  0.74970699  0.58098906  1
  C  C3  1  0.10322063  0.75030859  0.91878097  1
  N  N4  1  0.55280690  0.24804151  0.51666636  1
  N  N5  1  0.05288637  0.25194568  0.98336775  1
  N  N6  1  0.44719015  0.75195541  0.48334562  1
  N  N7  1  0.94712243  0.74806387  0.01666215  1
  H  H8  1  0.42229488  0.25006395  0.27704103  1
  H  H9  1  0.32864576  0.17217278  0.45518950  1
  H  H10  1  0.32908825  0.32802607  0.45419633  1
  H  H11  1  0.61825152  0.17496483  0.47984145  1
  H  H12  1  0.62087808  0.32170648  0.48447187  1
  H  H13  1  0.53334247  0.24480798  0.65313698  1
  H  H14  1  0.92265246  0.24991784  0.22317432  1
  H  H15  1  0.82923654  0.17196469  0.04614621  1
  H  H16  1  0.82879299  0.32782141  0.04519154  1
  H  H17  1  0.12099103  0.17829242  0.01547734  1
  H  H18  1  0.11835922  0.32503493  0.02010594  1
  H  H19  1  0.03328206  0.25518397  0.84692177  1
  H  H20  1  0.57770738  0.74994321  0.72296817  1
  H  H21  1  0.67092086  0.67198584  0.54581122  1
  H  H22  1  0.67134148  0.82783936  0.54481708  1
  H  H23  1  0.38173997  0.82502982  0.52016977  1
  H  H24  1  0.37912547  0.67828750  0.51554255  1
  H  H25  1  0.46665202  0.75518809  0.34687494  1
  H  H26  1  0.07733656  0.75009512  0.77684304  1
  H  H27  1  0.17077997  0.82803044  0.95387398  1
  H  H28  1  0.17119705  0.67217366  0.95480659  1
  H  H29  1  0.87902088  0.82172050  0.98455891  1
  H  H30  1  0.88164023  0.67497899  0.97993049  1
  H  H31  1  0.96673712  0.74482492  0.15310678  1
  Sn  Sn32  1  0.49999876  0.99999964  0.00001094  1
  Sn  Sn33  1  0.99999024  0.49999811  0.49999378  1
  Ba  Ba34  1  0.00000325  0.99999809  0.50001600  1
  Ba  Ba35  1  0.49999793  0.50000328  0.99998174  1
  Cl  Cl36  1  0.47079930  0.24181424  0.92852233  1
  Cl  Cl37  1  0.19086452  0.01970361  0.15802994  1
  Cl  Cl38  1  0.66951424  0.02248797  0.32287287  1
  Cl  Cl39  1  0.97072035  0.25818614  0.57159709  1
  Cl  Cl40  1  0.33050357  0.97751347  0.67713590  1
  Cl  Cl41  1  0.80912544  0.98029472  0.84199144  1
  Cl  Cl42  1  0.52920263  0.75818705  0.07148938  1
  Cl  Cl43  1  0.69087708  0.48024609  0.34194070  1
  Cl  Cl44  1  0.16950759  0.47753661  0.17711942  1
  Cl  Cl45  1  0.02928707  0.74181062  0.42842391  1
  Cl  Cl46  1  0.30910923  0.51975027  0.65803108  1
  Cl  Cl47  1  0.83050291  0.52247615  0.82287680  1
