# generated using pymatgen
data_YH12C2(I2N)3
_symmetry_space_group_name_H-M   'P 1'
_cell_length_a   9.35355268
_cell_length_b   10.26845272
_cell_length_c   8.74703118
_cell_angle_alpha   97.72713204
_cell_angle_beta   89.95808623
_cell_angle_gamma   89.96725599
_symmetry_Int_Tables_number   1
_chemical_formula_structural   YH12C2(I2N)3
_chemical_formula_sum   'Y2 H24 C4 I12 N6'
_cell_volume   832.49282689
_cell_formula_units_Z   2
loop_
 _symmetry_equiv_pos_site_id
 _symmetry_equiv_pos_as_xyz
  1  'x, y, z'
loop_
 _atom_site_type_symbol
 _atom_site_label
 _atom_site_symmetry_multiplicity
 _atom_site_fract_x
 _atom_site_fract_y
 _atom_site_fract_z
 _atom_site_occupancy
  C  C0  1  0.51382200  0.29259540  0.44309113  1
  C  C1  1  0.94174821  0.20587078  0.01745775  1
  C  C2  1  0.55747452  0.70518252  0.51816575  1
  C  C3  1  0.98731915  0.79310522  0.94284226  1
  N  N4  1  0.54316997  0.29304962  0.60938321  1
  N  N5  1  0.04807887  0.19957148  0.88944798  1
  N  N6  1  0.45186762  0.69919259  0.38964800  1
  N  N7  1  0.95807212  0.79349257  0.10918987  1
  H  H8  1  0.61470773  0.27862498  0.37966860  1
  H  H9  1  0.43998889  0.21203992  0.40426488  1
  H  H10  1  0.46352551  0.38512247  0.42333426  1
  H  H11  1  0.57809838  0.20187660  0.63515001  1
  H  H12  1  0.62366730  0.36007184  0.64946638  1
  H  H13  1  0.45243785  0.32050691  0.67410824  1
  H  H14  1  0.98510119  0.26532825  0.12020091  1
  H  H15  1  0.92029104  0.10668875  0.04391595  1
  H  H16  1  0.84296192  0.25010293  0.98167981  1
  H  H17  1  0.15064683  0.20133614  0.93348753  1
  H  H18  1  0.03687457  0.27865984  0.82842121  1
  H  H19  1  0.04178199  0.11147440  0.80646320  1
  H  H20  1  0.51359297  0.76448082  0.62084299  1
  H  H21  1  0.57883561  0.60592020  0.54443688  1
  H  H22  1  0.65645616  0.74946639  0.48298161  1
  H  H23  1  0.46410171  0.77795640  0.32828042  1
  H  H24  1  0.34901456  0.70185401  0.43316414  1
  H  H25  1  0.45798977  0.61083331  0.30700140  1
  H  H26  1  0.88640300  0.77927358  0.87965088  1
  H  H27  1  0.03749934  0.88562746  0.92303657  1
  H  H28  1  0.06113369  0.71247529  0.90375515  1
  H  H29  1  0.87729132  0.86031683  0.14939966  1
  H  H30  1  0.92343230  0.70226738  0.13500693  1
  H  H31  1  0.04868879  0.82113393  0.17380054  1
  N  N32  1  0.10074968  0.95822540  0.71139899  1
  N  N33  1  0.39922615  0.45751682  0.21217877  1
  Y  Y34  1  0.49174496  0.99271151  0.01464343  1
  Y  Y35  1  0.00732233  0.49267182  0.51454031  1
  I  I36  1  0.48263513  0.32724360  0.03066403  1
  I  I37  1  0.23004209  0.02727474  0.19186867  1
  I  I38  1  0.68415738  0.99595939  0.28114625  1
  I  I39  1  0.98891511  0.21430574  0.48026268  1
  I  I40  1  0.31970130  0.99231619  0.68796861  1
  I  I41  1  0.69442966  0.02962928  0.76180931  1
  I  I42  1  0.50705290  0.71418103  0.98028513  1
  I  I43  1  0.80559497  0.53077131  0.26147641  1
  I  I44  1  0.18034494  0.49175384  0.18830933  1
  I  I45  1  0.01819119  0.82740786  0.53014513  1
  I  I46  1  0.26905396  0.52478025  0.69140555  1
  I  I47  1  0.81478709  0.49783068  0.78144988  1
