# generated using pymatgen
data_TlSbH12C2(NCl3)2
_symmetry_space_group_name_H-M   'P 1'
_cell_length_a   8.27256463
_cell_length_b   11.43695231
_cell_length_c   7.54841706
_cell_angle_alpha   88.01976798
_cell_angle_beta   89.99380186
_cell_angle_gamma   89.99391819
_symmetry_Int_Tables_number   1
_chemical_formula_structural   TlSbH12C2(NCl3)2
_chemical_formula_sum   'Tl2 Sb2 H24 C4 N4 Cl12'
_cell_volume   713.75132564
_cell_formula_units_Z   2
loop_
 _symmetry_equiv_pos_site_id
 _symmetry_equiv_pos_as_xyz
  1  'x, y, z'
loop_
 _atom_site_type_symbol
 _atom_site_label
 _atom_site_symmetry_multiplicity
 _atom_site_fract_x
 _atom_site_fract_y
 _atom_site_fract_z
 _atom_site_occupancy
  C  C0  1  0.42066128  0.24929413  0.43743069  1
  C  C1  1  0.92062884  0.25064070  0.06231548  1
  C  C2  1  0.57933643  0.75072746  0.56257860  1
  C  C3  1  0.07937825  0.74934159  0.93770510  1
  N  N4  1  0.58165215  0.25076695  0.52468391  1
  N  N5  1  0.08161945  0.24930456  0.97501225  1
  N  N6  1  0.41834762  0.74925476  0.47532651  1
  N  N7  1  0.91838372  0.75068457  0.02499862  1
  H  H8  1  0.43883956  0.25176091  0.29369145  1
  H  H9  1  0.35907140  0.16813293  0.47831738  1
  H  H10  1  0.35165602  0.32548000  0.47745211  1
  H  H11  1  0.64850799  0.17956737  0.48462503  1
  H  H12  1  0.64461502  0.32677777  0.48767524  1
  H  H13  1  0.56974339  0.24575196  0.66242768  1
  H  H14  1  0.93881696  0.24833415  0.20604366  1
  H  H15  1  0.85185283  0.17430449  0.02248523  1
  H  H16  1  0.85878746  0.33166726  0.02125955  1
  H  H17  1  0.14474688  0.17337300  0.01207456  1
  H  H18  1  0.14831935  0.32059173  0.01499648  1
  H  H19  1  0.06969679  0.25425879  0.83727558  1
  H  H20  1  0.56116296  0.74826743  0.70631647  1
  H  H21  1  0.64833739  0.67453048  0.52256532  1
  H  H22  1  0.64093392  0.83187873  0.52167758  1
  H  H23  1  0.35149550  0.82046018  0.51538430  1
  H  H24  1  0.35537904  0.67324819  0.51234192  1
  H  H25  1  0.43025290  0.75426535  0.33758598  1
  H  H26  1  0.06119753  0.75163620  0.79397681  1
  H  H27  1  0.14815358  0.82568027  0.97752573  1
  H  H28  1  0.14121708  0.66831690  0.97878041  1
  H  H29  1  0.85525971  0.82661597  0.98792410  1
  H  H30  1  0.85168378  0.67939629  0.98501845  1
  H  H31  1  0.93029946  0.74573708  0.16273598  1
  Sb  Sb32  1  0.50000252  0.00000203  0.00000154  1
  Sb  Sb33  1  -0.00000034  0.50000178  0.50000929  1
  Tl  Tl34  1  0.99999614  0.00000166  0.49999981  1
  Tl  Tl35  1  0.49999586  0.50000241  0.00000790  1
  Cl  Cl36  1  0.48876750  0.23016770  0.93519985  1
  Cl  Cl37  1  0.21880104  0.01508818  0.16508613  1
  Cl  Cl38  1  0.66504076  0.02581967  0.29762576  1
  Cl  Cl39  1  0.98862506  0.26982984  0.56457609  1
  Cl  Cl40  1  0.33494541  0.97419550  0.70237929  1
  Cl  Cl41  1  0.78121373  0.98490415  0.83492352  1
  Cl  Cl42  1  0.51123596  0.76983761  0.06481065  1
  Cl  Cl43  1  0.71878965  0.48511033  0.33492735  1
  Cl  Cl44  1  0.16497153  0.47415919  0.20230617  1
  Cl  Cl45  1  0.01137204  0.73017282  0.43543960  1
  Cl  Cl46  1  0.28121431  0.51490497  0.66508174  1
  Cl  Cl47  1  0.83501834  0.52583230  0.79771376  1
