# generated using pymatgen
data_SbH12AuC2(NCl3)2
_symmetry_space_group_name_H-M   'P 1'
_cell_length_a   7.85222259
_cell_length_b   11.52496342
_cell_length_c   7.32751536
_cell_angle_alpha   87.04129181
_cell_angle_beta   100.32816646
_cell_angle_gamma   89.72244221
_symmetry_Int_Tables_number   1
_chemical_formula_structural   SbH12AuC2(NCl3)2
_chemical_formula_sum   'Sb2 H24 Au2 C4 N4 Cl12'
_cell_volume   651.43393167
_cell_formula_units_Z   2
loop_
 _symmetry_equiv_pos_site_id
 _symmetry_equiv_pos_as_xyz
  1  'x, y, z'
loop_
 _atom_site_type_symbol
 _atom_site_label
 _atom_site_symmetry_multiplicity
 _atom_site_fract_x
 _atom_site_fract_y
 _atom_site_fract_z
 _atom_site_occupancy
  C  C0  1  0.41663327  0.25255771  0.43323499  1
  C  C1  1  0.91947090  0.24804618  0.06380432  1
  C  C2  1  0.58336528  0.74744489  0.56677923  1
  C  C3  1  0.08053744  0.75195348  0.93621589  1
  N  N4  1  0.59527423  0.24315161  0.54175176  1
  N  N5  1  0.08745102  0.26052902  0.99971900  1
  N  N6  1  0.40472535  0.75685506  0.45826232  1
  N  N7  1  0.91255305  0.73946907  0.00029306  1
  H  H8  1  0.42452256  0.26021035  0.28545375  1
  H  H9  1  0.34577518  0.17476954  0.46443993  1
  H  H10  1  0.35446645  0.32993198  0.47291411  1
  H  H11  1  0.65879413  0.17010428  0.50827715  1
  H  H12  1  0.66668784  0.31463554  0.51254647  1
  H  H13  1  0.59162477  0.23756218  0.68354679  1
  H  H14  1  0.94392213  0.23776649  0.21544223  1
  H  H15  1  0.85586633  0.17097368  0.00456079  1
  H  H16  1  0.84021796  0.32590383  0.01760244  1
  H  H17  1  0.16582990  0.18784924  0.04481355  1
  H  H18  1  0.14975141  0.33440275  0.05150495  1
  H  H19  1  0.07069833  0.26759031  0.85478477  1
  H  H20  1  0.57547830  0.73979512  0.71455866  1
  H  H21  1  0.64553099  0.67007147  0.52709948  1
  H  H22  1  0.65422601  0.82523468  0.53557043  1
  H  H23  1  0.34120658  0.82990091  0.49173715  1
  H  H24  1  0.33330986  0.68536933  0.48747013  1
  H  H25  1  0.40837276  0.76244198  0.31646766  1
  H  H26  1  0.05608254  0.76223683  0.78456343  1
  H  H27  1  0.14413402  0.82902934  0.99545100  1
  H  H28  1  0.15978430  0.67410263  0.98240820  1
  H  H29  1  0.83416888  0.81215194  0.95519313  1
  H  H30  1  0.85025391  0.66559709  0.94850302  1
  H  H31  1  0.92930250  0.73241064  0.14522120  1
  Sb  Sb32  1  0.50000173  0.00000153  0.00000811  1
  Sb  Sb33  1  0.99999958  0.50000200  0.50000485  1
  Au  Au34  1  0.00000075  0.00000247  0.50000770  1
  Au  Au35  1  0.50000020  0.50000187  0.00000551  1
  Cl  Cl36  1  0.48130605  0.22662496  0.93730287  1
  Cl  Cl37  1  0.23679521  0.01089923  0.17282084  1
  Cl  Cl38  1  0.71558985  0.02458862  0.33565783  1
  Cl  Cl39  1  0.01071562  0.27248572  0.55988439  1
  Cl  Cl40  1  0.28441155  0.97541623  0.66435797  1
  Cl  Cl41  1  0.76320702  0.98910356  0.82719488  1
  Cl  Cl42  1  0.51869743  0.77337838  0.06271368  1
  Cl  Cl43  1  0.66954587  0.48192571  0.29760533  1
  Cl  Cl44  1  0.16643984  0.49435597  0.22158770  1
  Cl  Cl45  1  0.98928351  0.72751859  0.44012498  1
  Cl  Cl46  1  0.33045358  0.51807805  0.70240628  1
  Cl  Cl47  1  0.83355779  0.50564624  0.77842266  1
