# generated using pymatgen
data_BaH12PbC2(NCl3)2
_symmetry_space_group_name_H-M   'P 1'
_cell_length_a   8.22801504
_cell_length_b   11.58874335
_cell_length_c   7.63146095
_cell_angle_alpha   90.69208765
_cell_angle_beta   89.99965326
_cell_angle_gamma   90.00251713
_symmetry_Int_Tables_number   1
_chemical_formula_structural   BaH12PbC2(NCl3)2
_chemical_formula_sum   'Ba2 H24 Pb2 C4 N4 Cl12'
_cell_volume   727.62468294
_cell_formula_units_Z   2
loop_
 _symmetry_equiv_pos_site_id
 _symmetry_equiv_pos_as_xyz
  1  'x, y, z'
loop_
 _atom_site_type_symbol
 _atom_site_label
 _atom_site_symmetry_multiplicity
 _atom_site_fract_x
 _atom_site_fract_y
 _atom_site_fract_z
 _atom_site_occupancy
  C  C0  1  0.39165570  0.24967978  0.41608500  1
  C  C1  1  0.89218741  0.25041755  0.08447897  1
  C  C2  1  0.60834001  0.75032544  0.58392026  1
  C  C3  1  0.10781343  0.74958100  0.91553190  1
  N  N4  1  0.54405950  0.25060818  0.51957626  1
  N  N5  1  0.04431059  0.24940265  0.98051176  1
  N  N6  1  0.45593923  0.74939082  0.48042286  1
  N  N7  1  0.95569614  0.75060155  0.01950906  1
  H  H8  1  0.42234271  0.25001738  0.27646453  1
  H  H9  1  0.32210151  0.17239824  0.44767317  1
  H  H10  1  0.32311706  0.32773415  0.44888940  1
  H  H11  1  0.61256804  0.17725543  0.48919016  1
  H  H12  1  0.61148862  0.32343608  0.48695875  1
  H  H13  1  0.52019306  0.25266735  0.65420367  1
  H  H14  1  0.92327553  0.25010165  0.22399867  1
  H  H15  1  0.82348091  0.17238272  0.05198207  1
  H  H16  1  0.82261838  0.32772645  0.05308730  1
  H  H17  1  0.11174466  0.17654623  0.01295860  1
  H  H18  1  0.11294955  0.32272603  0.01068504  1
  H  H19  1  0.02012087  0.24733680  0.84595065  1
  H  H20  1  0.57764781  0.74998920  0.72353955  1
  H  H21  1  0.67688258  0.67227170  0.55112142  1
  H  H22  1  0.67789174  0.82760742  0.55233073  1
  H  H23  1  0.38742706  0.82274307  0.51080311  1
  H  H24  1  0.38851196  0.67656323  0.51304292  1
  H  H25  1  0.47980958  0.74733052  0.34579660  1
  H  H26  1  0.07671705  0.74990791  0.77601427  1
  H  H27  1  0.17653427  0.82760870  0.94803350  1
  H  H28  1  0.17737267  0.67226504  0.94690762  1
  H  H29  1  0.88826240  0.82345790  0.98706137  1
  H  H30  1  0.88705355  0.67727831  0.98934397  1
  H  H31  1  0.97989160  0.75266998  0.15406853  1
  Ba  Ba32  1  0.50000479  0.00000432  0.99999252  1
  Ba  Ba33  1  0.99999863  0.50000552  0.50002617  1
  Pb  Pb34  1  0.00000212  0.00000595  0.49999832  1
  Pb  Pb35  1  0.49999840  0.50000255  0.00002140  1
  Cl  Cl36  1  0.46619984  0.25638157  0.92698794  1
  Cl  Cl37  1  0.16895813  0.02465819  0.17248965  1
  Cl  Cl38  1  0.68515621  0.02140623  0.34231981  1
  Cl  Cl39  1  0.96606843  0.24362337  0.57324778  1
  Cl  Cl40  1  0.31484666  0.97859740  0.65767195  1
  Cl  Cl41  1  0.83105424  0.97534186  0.82750366  1
  Cl  Cl42  1  0.53380149  0.74362718  0.07301205  1
  Cl  Cl43  1  0.66893803  0.47527497  0.32752294  1
  Cl  Cl44  1  0.18517242  0.47869834  0.15770413  1
  Cl  Cl45  1  0.03392947  0.75638630  0.42677956  1
  Cl  Cl46  1  0.33106099  0.52473707  0.67252442  1
  Cl  Cl47  1  0.81482876  0.52129901  0.84235265  1
