# generated using pymatgen
data_BaHgH12C2(NCl3)2
_symmetry_space_group_name_H-M   'P 1'
_cell_length_a   7.93264721
_cell_length_b   11.30390084
_cell_length_c   7.55767790
_cell_angle_alpha   90.97401611
_cell_angle_beta   90.00004921
_cell_angle_gamma   90.00460554
_symmetry_Int_Tables_number   1
_chemical_formula_structural   BaHgH12C2(NCl3)2
_chemical_formula_sum   'Ba2 Hg2 H24 C4 N4 Cl12'
_cell_volume   677.59797625
_cell_formula_units_Z   2
loop_
 _symmetry_equiv_pos_site_id
 _symmetry_equiv_pos_as_xyz
  1  'x, y, z'
loop_
 _atom_site_type_symbol
 _atom_site_label
 _atom_site_symmetry_multiplicity
 _atom_site_fract_x
 _atom_site_fract_y
 _atom_site_fract_z
 _atom_site_occupancy
  C  C0  1  0.39249931  0.24926698  0.41140837  1
  C  C1  1  0.89360573  0.25094850  0.08971269  1
  C  C2  1  0.60749771  0.75073856  0.58860389  1
  C  C3  1  0.10639994  0.74905230  0.91030043  1
  N  N4  1  0.54534173  0.25037094  0.52376105  1
  N  N5  1  0.04579502  0.24966833  0.97640043  1
  N  N6  1  0.45465487  0.74963464  0.47625193  1
  N  N7  1  0.95421184  0.75032929  0.02361465  1
  H  H8  1  0.43099976  0.25044335  0.27239383  1
  H  H9  1  0.31783090  0.17060258  0.43917058  1
  H  H10  1  0.32109465  0.32971308  0.44088596  1
  H  H11  1  0.61867943  0.17572525  0.49685739  1
  H  H12  1  0.61577518  0.32499785  0.49446758  1
  H  H13  1  0.51568707  0.25327107  0.65879089  1
  H  H14  1  0.93298035  0.24980096  0.22847313  1
  H  H15  1  0.82185336  0.17054790  0.06091094  1
  H  H16  1  0.81893033  0.32967309  0.06238912  1
  H  H17  1  0.11622745  0.17498800  0.00530913  1
  H  H18  1  0.11938174  0.32425669  0.00284490  1
  H  H19  1  0.01541890  0.24676203  0.84153370  1
  H  H20  1  0.56899741  0.74956527  0.72761902  1
  H  H21  1  0.67890043  0.67029110  0.55912982  1
  H  H22  1  0.68216789  0.82940162  0.56083904  1
  H  H23  1  0.38131744  0.82428015  0.50315599  1
  H  H24  1  0.38422158  0.67500755  0.50554554  1
  H  H25  1  0.48430942  0.74673482  0.34122217  1
  H  H26  1  0.06702383  0.75020152  0.77154085  1
  H  H27  1  0.17815235  0.82945244  0.93910514  1
  H  H28  1  0.18107579  0.67032737  0.93762007  1
  H  H29  1  0.88377641  0.82500863  0.99470827  1
  H  H30  1  0.88062703  0.67574008  0.99716894  1
  H  H31  1  0.98458882  0.75323528  0.15848104  1
  Ba  Ba32  1  0.50000348  0.00000545  0.00000767  1
  Ba  Ba33  1  0.99999618  0.50000064  0.49999886  1
  Hg  Hg34  1  0.00000171  0.00000137  0.50000912  1
  Hg  Hg35  1  0.49999805  0.50000666  0.99999930  1
  Cl  Cl36  1  0.46830215  0.26193442  0.93344362  1
  Cl  Cl37  1  0.16176382  0.01909746  0.18644258  1
  Cl  Cl38  1  0.69899694  0.01388868  0.34361767  1
  Cl  Cl39  1  0.96779291  0.23807635  0.56707625  1
  Cl  Cl40  1  0.30100658  0.98611758  0.65640029  1
  Cl  Cl41  1  0.83824247  0.98090198  0.81357522  1
  Cl  Cl42  1  0.53170007  0.73807506  0.06656762  1
  Cl  Cl43  1  0.66171583  0.48080337  0.31360171  1
  Cl  Cl44  1  0.19905697  0.48628859  0.15637520  1
  Cl  Cl45  1  0.03220581  0.76192646  0.43294056  1
  Cl  Cl46  1  0.33827757  0.51920127  0.68639866  1
  Cl  Cl47  1  0.80093954  0.51371573  0.84362580  1
