# generated using pymatgen
data_BaH12PtC2(NCl3)2
_symmetry_space_group_name_H-M   'P 1'
_cell_length_a   7.47805084
_cell_length_b   12.63413295
_cell_length_c   7.14870224
_cell_angle_alpha   87.68523517
_cell_angle_beta   89.99306956
_cell_angle_gamma   90.01897714
_symmetry_Int_Tables_number   1
_chemical_formula_structural   BaH12PtC2(NCl3)2
_chemical_formula_sum   'Ba2 H24 Pt2 C4 N4 Cl12'
_cell_volume   674.84885681
_cell_formula_units_Z   2
loop_
 _symmetry_equiv_pos_site_id
 _symmetry_equiv_pos_as_xyz
  1  'x, y, z'
loop_
 _atom_site_type_symbol
 _atom_site_label
 _atom_site_symmetry_multiplicity
 _atom_site_fract_x
 _atom_site_fract_y
 _atom_site_fract_z
 _atom_site_occupancy
  C  C0  1  0.38984576  0.24926502  0.40891280  1
  C  C1  1  0.89070196  0.25089943  0.09176033  1
  C  C2  1  0.61015250  0.75073844  0.59109761  1
  C  C3  1  0.10930149  0.74910527  0.90825256  1
  N  N4  1  0.56165660  0.24965712  0.51077648  1
  N  N5  1  0.06212865  0.25028476  0.98918139  1
  N  N6  1  0.43834210  0.75034860  0.48923288  1
  N  N7  1  0.93787462  0.74971476  0.01083203  1
  H  H8  1  0.41685477  0.25200337  0.25823762  1
  H  H9  1  0.31373731  0.17837777  0.45182627  1
  H  H10  1  0.31515330  0.31967645  0.44547964  1
  H  H11  1  0.64014537  0.18453196  0.48142773  1
  H  H12  1  0.63447966  0.31687989  0.47504284  1
  H  H13  1  0.54000846  0.24773334  0.65708100  1
  H  H14  1  0.91824766  0.24820232  0.24232785  1
  H  H15  1  0.81553457  0.18055984  0.05565041  1
  H  H16  1  0.81475732  0.32185693  0.04906514  1
  H  H17  1  0.13477575  0.18299405  0.02467113  1
  H  H18  1  0.14097343  0.31533102  0.01817800  1
  H  H19  1  0.03993059  0.25221308  0.84295237  1
  H  H20  1  0.58314278  0.74800081  0.74177268  1
  H  H21  1  0.68484240  0.68032600  0.55453156  1
  H  H22  1  0.68626360  0.82162472  0.54818421  1
  H  H23  1  0.35985588  0.81547495  0.51858109  1
  H  H24  1  0.36551547  0.68312722  0.52496580  1
  H  H25  1  0.45999125  0.75227189  0.34292846  1
  H  H26  1  0.08175560  0.75180397  0.75768528  1
  H  H27  1  0.18446464  0.81944567  0.94436587  1
  H  H28  1  0.18525014  0.67814856  0.95094446  1
  H  H29  1  0.86522202  0.81700357  0.97534474  1
  H  H30  1  0.85903452  0.68466667  0.98183374  1
  H  H31  1  0.96007264  0.74778589  0.15706099  1
  Ba  Ba32  1  0.50000180  0.00000197  0.00000517  1
  Ba  Ba33  1  0.00000119  0.50000098  0.50000926  1
  Pt  Pt34  1  0.00000050  0.00000149  0.50000563  1
  Pt  Pt35  1  0.50000037  0.50000167  0.00000867  1
  Cl  Cl36  1  0.46588982  0.22857249  0.92319789  1
  Cl  Cl37  1  0.12986796  0.01077681  0.20397718  1
  Cl  Cl38  1  0.71634440  0.02316202  0.37144072  1
  Cl  Cl39  1  0.96508862  0.27148183  0.57730213  1
  Cl  Cl40  1  0.28365657  0.97684231  0.62857126  1
  Cl  Cl41  1  0.87013387  0.98922538  0.79603415  1
  Cl  Cl42  1  0.53411399  0.77143154  0.07681279  1
  Cl  Cl43  1  0.62986271  0.48919680  0.29601370  1
  Cl  Cl44  1  0.21631872  0.47681639  0.12859403  1
  Cl  Cl45  1  0.03490982  0.72852008  0.42271299  1
  Cl  Cl46  1  0.37013870  0.51080696  0.70400349  1
  Cl  Cl47  1  0.78368188  0.52318621  0.87142254  1
