# generated using pymatgen
data_BaH12OsC2(NCl3)2
_symmetry_space_group_name_H-M   'P 1'
_cell_length_a   7.70516675
_cell_length_b   10.77435657
_cell_length_c   7.35807637
_cell_angle_alpha   92.70838964
_cell_angle_beta   89.99826707
_cell_angle_gamma   89.99522257
_symmetry_Int_Tables_number   1
_chemical_formula_structural   BaH12OsC2(NCl3)2
_chemical_formula_sum   'Ba2 H24 Os2 C4 N4 Cl12'
_cell_volume   610.17201128
_cell_formula_units_Z   2
loop_
 _symmetry_equiv_pos_site_id
 _symmetry_equiv_pos_as_xyz
  1  'x, y, z'
loop_
 _atom_site_type_symbol
 _atom_site_label
 _atom_site_symmetry_multiplicity
 _atom_site_fract_x
 _atom_site_fract_y
 _atom_site_fract_z
 _atom_site_occupancy
  C  C0  1  0.39411186  0.24906409  0.41116299  1
  C  C1  1  0.89506636  0.25116210  0.08971814  1
  C  C2  1  0.60588594  0.75094122  0.58884796  1
  C  C3  1  0.10493730  0.74884051  0.91029451  1
  N  N4  1  0.55170576  0.25189150  0.52537193  1
  N  N5  1  0.05206657  0.24813759  0.97462494  1
  N  N6  1  0.44829190  0.74811394  0.47463919  1
  N  N7  1  0.94793836  0.75186094  0.02538963  1
  H  H8  1  0.43280181  0.24970442  0.26823721  1
  H  H9  1  0.31648550  0.16763034  0.43933066  1
  H  H10  1  0.32160959  0.33412591  0.44340892  1
  H  H11  1  0.62746957  0.17329248  0.49752391  1
  H  H12  1  0.62363802  0.32933500  0.49488481  1
  H  H13  1  0.52181478  0.25849928  0.66441222  1
  H  H14  1  0.93453061  0.25057968  0.23241571  1
  H  H15  1  0.82226844  0.16613714  0.05813909  1
  H  H16  1  0.81738131  0.33264124  0.06189049  1
  H  H17  1  0.12401687  0.17062566  0.00474097  1
  H  H18  1  0.12805373  0.32666770  0.00207352  1
  H  H19  1  0.02151422  0.24153681  0.83574167  1
  H  H20  1  0.56719599  0.75030319  0.73177387  1
  H  H21  1  0.67838654  0.66587823  0.55660452  1
  H  H22  1  0.68351379  0.83237379  0.56067805  1
  H  H23  1  0.37252872  0.82671337  0.50248713  1
  H  H24  1  0.37635904  0.67067095  0.50512723  1
  H  H25  1  0.47818253  0.74150566  0.33559890  1
  H  H26  1  0.06547141  0.74942507  0.76759765  1
  H  H27  1  0.17773400  0.83386555  0.94187637  1
  H  H28  1  0.18262422  0.66736141  0.93811774  1
  H  H29  1  0.87598434  0.82937166  0.99527647  1
  H  H30  1  0.87195377  0.67332968  0.99794015  1
  H  H31  1  0.97849203  0.75846136  0.16427259  1
  Ba  Ba32  1  0.50000197  0.00000222  0.00000665  1
  Ba  Ba33  1  0.99999954  0.50000172  0.50000462  1
  Os  Os34  1  0.00000084  0.00000188  0.50000742  1
  Os  Os35  1  0.50000007  0.50000220  0.00000468  1
  Cl  Cl36  1  0.47675554  0.27814575  0.94498702  1
  Cl  Cl37  1  0.15614566  0.01269265  0.21407891  1
  Cl  Cl38  1  0.72695995  0.00367182  0.33777558  1
  Cl  Cl39  1  0.97618492  0.22181863  0.55546457  1
  Cl  Cl40  1  0.27304168  0.99633322  0.66223951  1
  Cl  Cl41  1  0.84385749  0.98730930  0.78593615  1
  Cl  Cl42  1  0.52324616  0.72185862  0.05502384  1
  Cl  Cl43  1  0.65601092  0.48732204  0.28596126  1
  Cl  Cl44  1  0.22689242  0.49642642  0.16214839  1
  Cl  Cl45  1  0.02381502  0.77818505  0.44455071  1
  Cl  Cl46  1  0.34398947  0.51268205  0.71404740  1
  Cl  Cl47  1  0.77310724  0.50357722  0.83786074  1
