# generated using pymatgen
data_HfHgH12C2(NCl3)2
_symmetry_space_group_name_H-M   'P 1'
_cell_length_a   7.60273584
_cell_length_b   11.59613483
_cell_length_c   8.16643857
_cell_angle_alpha   76.80823772
_cell_angle_beta   89.99822695
_cell_angle_gamma   90.00015070
_symmetry_Int_Tables_number   1
_chemical_formula_structural   HfHgH12C2(NCl3)2
_chemical_formula_sum   'Hf2 Hg2 H24 C4 N4 Cl12'
_cell_volume   700.97358397
_cell_formula_units_Z   2
loop_
 _symmetry_equiv_pos_site_id
 _symmetry_equiv_pos_as_xyz
  1  'x, y, z'
loop_
 _atom_site_type_symbol
 _atom_site_label
 _atom_site_symmetry_multiplicity
 _atom_site_fract_x
 _atom_site_fract_y
 _atom_site_fract_z
 _atom_site_occupancy
  C  C0  1  0.43425473  0.25051980  0.38800087  1
  C  C1  1  0.94457644  0.24238776  0.11215322  1
  C  C2  1  0.55550151  0.74223241  0.61217286  1
  C  C3  1  0.06565014  0.75064786  0.88793189  1
  N  N4  1  0.53665325  0.25817838  0.54012788  1
  N  N5  1  0.05171102  0.25052660  0.95759585  1
  N  N6  1  0.44798553  0.75066265  0.45779251  1
  N  N7  1  0.96332198  0.75818437  0.04016074  1
  H  H8  1  0.52539460  0.25736967  0.28247373  1
  H  H9  1  0.36605899  0.16518700  0.41160418  1
  H  H10  1  0.34056363  0.32415787  0.36164602  1
  H  H11  1  0.63163448  0.19316137  0.56863268  1
  H  H12  1  0.59946138  0.34010883  0.52094377  1
  H  H13  1  0.45934008  0.24913608  0.64694359  1
  H  H14  1  0.03260651  0.24643627  0.21665482  1
  H  H15  1  0.87340040  0.15817832  0.13790991  1
  H  H16  1  0.85307552  0.31724125  0.09095553  1
  H  H17  1  0.14352126  0.18259314  0.97487867  1
  H  H18  1  0.11762622  0.33028935  0.92396527  1
  H  H19  1  0.97573527  0.24461262  0.85398353  1
  H  H20  1  0.46768253  0.74568666  0.71706578  1
  H  H21  1  0.62703376  0.65816602  0.63715990  1
  H  H22  1  0.64667481  0.81725548  0.59126296  1
  H  H23  1  0.38152734  0.83027480  0.42496165  1
  H  H24  1  0.35657540  0.68251744  0.47485429  1
  H  H25  1  0.52373639  0.74539799  0.35374426  1
  H  H26  1  0.97451283  0.75803720  0.78229061  1
  H  H27  1  0.15980082  0.82401465  0.86198837  1
  H  H28  1  0.13326871  0.66512302  0.91114203  1
  H  H29  1  0.90105257  0.84028861  0.02132107  1
  H  H30  1  0.86789436  0.69347622  0.06826621  1
  H  H31  1  0.04059606  0.74865247  0.14708704  1
  Hf  Hf32  1  0.50947819  0.99845269  0.00171651  1
  Hf  Hf33  1  0.99066635  0.49844466  0.50163610  1
  Hg  Hg34  1  0.01398049  0.99900033  0.50152424  1
  Hg  Hg35  1  0.48649348  0.49894864  0.00158510  1
  Cl  Cl36  1  0.47907169  0.21503203  0.93818428  1
  Cl  Cl37  1  0.20975301  0.97783994  0.11329511  1
  Cl  Cl38  1  0.61849537  0.00076200  0.28155208  1
  Cl  Cl39  1  0.96267860  0.28161243  0.56409636  1
  Cl  Cl40  1  0.40411809  0.99607706  0.72111860  1
  Cl  Cl41  1  0.81027852  0.02088101  0.88970602  1
  Cl  Cl42  1  0.53744850  0.78159909  0.06438548  1
  Cl  Cl43  1  0.68988228  0.52080114  0.38970328  1
  Cl  Cl44  1  0.09630256  0.49627278  0.22106574  1
  Cl  Cl45  1  0.02083201  0.71504909  0.43819601  1
  Cl  Cl46  1  0.29037339  0.47786831  0.61332883  1
  Cl  Cl47  1  0.88174267  0.50073490  0.78153118  1
