# generated using pymatgen
data_HfH12PtC2(NCl3)2
_symmetry_space_group_name_H-M   'P 1'
_cell_length_a   7.32953097
_cell_length_b   11.26549389
_cell_length_c   7.64336843
_cell_angle_alpha   85.48664635
_cell_angle_beta   103.62146677
_cell_angle_gamma   92.65967532
_symmetry_Int_Tables_number   1
_chemical_formula_structural   HfH12PtC2(NCl3)2
_chemical_formula_sum   'Hf2 H24 Pt2 C4 N4 Cl12'
_cell_volume   611.21225705
_cell_formula_units_Z   2
loop_
 _symmetry_equiv_pos_site_id
 _symmetry_equiv_pos_as_xyz
  1  'x, y, z'
loop_
 _atom_site_type_symbol
 _atom_site_label
 _atom_site_symmetry_multiplicity
 _atom_site_fract_x
 _atom_site_fract_y
 _atom_site_fract_z
 _atom_site_occupancy
  C  C0  1  0.45747124  0.24528215  0.42169574  1
  C  C1  1  0.02020213  0.23800820  0.08049436  1
  C  C2  1  0.51333402  0.75374506  0.62124273  1
  C  C3  1  0.01699473  0.74793836  0.86151712  1
  N  N4  1  0.54536701  0.25015145  0.61630064  1
  N  N5  1  0.05022898  0.24901210  0.89407058  1
  N  N6  1  0.44062357  0.75713148  0.42318545  1
  N  N7  1  0.94242089  0.75327143  0.02427591  1
  H  H8  1  0.56825388  0.25568482  0.34750729  1
  H  H9  1  0.38315257  0.15910918  0.40066495  1
  H  H10  1  0.36070264  0.31872812  0.38119403  1
  H  H11  1  0.64076517  0.18283384  0.65986771  1
  H  H12  1  0.61272233  0.33185228  0.64574714  1
  H  H13  1  0.44913265  0.23789070  0.69627287  1
  H  H14  1  0.15576185  0.22971670  0.17570985  1
  H  H15  1  0.93232963  0.15907178  0.09717083  1
  H  H16  1  0.94973170  0.31763328  0.09962443  1
  H  H17  1  0.07411399  0.16828150  0.84809184  1
  H  H18  1  0.16174832  0.30668417  0.88244039  1
  H  H19  1  0.93607635  0.28565640  0.80371251  1
  H  H20  1  0.39383854  0.75034215  0.68406530  1
  H  H21  1  0.59537748  0.67352272  0.66516788  1
  H  H22  1  0.59934179  0.83462990  0.65372197  1
  H  H23  1  0.35616752  0.82978632  0.37618171  1
  H  H24  1  0.36095919  0.68111553  0.38474350  1
  H  H25  1  0.54593996  0.76264098  0.35326945  1
  H  H26  1  0.89933054  0.74472487  0.74427704  1
  H  H27  1  0.10227453  0.82851628  0.84609843  1
  H  H28  1  0.09988240  0.66809009  0.87473730  1
  H  H29  1  0.85958252  0.82664724  0.01306812  1
  H  H30  1  0.86052203  0.67638134  0.04844705  1
  H  H31  1  0.04609746  0.76019507  0.14067805  1
  Hf  Hf32  1  0.50136357  0.00054884  0.02635549  1
  Hf  Hf33  1  0.99930990  0.50084822  0.39616351  1
  Pt  Pt34  1  0.00230551  0.00842732  0.52354963  1
  Pt  Pt35  1  0.71695847  0.49931800  0.12858810  1
  Cl  Cl36  1  0.49479500  0.21835131  0.00966394  1
  Cl  Cl37  1  0.23009287  0.98043334  0.15911618  1
  Cl  Cl38  1  0.71525260  0.99840774  0.32797892  1
  Cl  Cl39  1  0.94984848  0.28972571  0.46990000  1
  Cl  Cl40  1  0.29401809  0.01042595  0.70883355  1
  Cl  Cl41  1  0.75628691  0.01158592  0.86484655  1
  Cl  Cl42  1  0.50606309  0.78360022  0.03472782  1
  Cl  Cl43  1  0.65626271  0.51863206  0.40981468  1
  Cl  Cl44  1  0.21335117  0.51948731  0.20139915  1
  Cl  Cl45  1  0.01070509  0.71373214  0.44083704  1
  Cl  Cl46  1  0.24951352  0.48346274  0.68087780  1
  Cl  Cl47  1  0.77344913  0.47881595  0.85240209  1
