# generated using pymatgen
data_TaH12AuC2(NCl3)2
_symmetry_space_group_name_H-M   'P 1'
_cell_length_a   7.39939423
_cell_length_b   10.92412557
_cell_length_c   8.15794315
_cell_angle_alpha   81.30862782
_cell_angle_beta   89.99627780
_cell_angle_gamma   89.99891724
_symmetry_Int_Tables_number   1
_chemical_formula_structural   TaH12AuC2(NCl3)2
_chemical_formula_sum   'Ta2 H24 Au2 C4 N4 Cl12'
_cell_volume   651.84976619
_cell_formula_units_Z   2
loop_
 _symmetry_equiv_pos_site_id
 _symmetry_equiv_pos_as_xyz
  1  'x, y, z'
loop_
 _atom_site_type_symbol
 _atom_site_label
 _atom_site_symmetry_multiplicity
 _atom_site_fract_x
 _atom_site_fract_y
 _atom_site_fract_z
 _atom_site_occupancy
  C  C0  1  0.44395514  0.24418430  0.39706762  1
  C  C1  1  0.96273407  0.25333666  0.10558718  1
  C  C2  1  0.53724485  0.75333685  0.60559893  1
  C  C3  1  0.05611417  0.74425267  0.89696650  1
  N  N4  1  0.54668630  0.25169082  0.55212827  1
  N  N5  1  0.08298115  0.26278620  0.95881697  1
  N  N6  1  0.41702169  0.76283990  0.45881274  1
  N  N7  1  0.95326191  0.75166652  0.05199923  1
  H  H8  1  0.54091603  0.23995326  0.29701133  1
  H  H9  1  0.35843709  0.16082672  0.41514111  1
  H  H10  1  0.36182821  0.32794349  0.36837998  1
  H  H11  1  0.63387466  0.17790744  0.58120264  1
  H  H12  1  0.62263344  0.33274823  0.53591711  1
  H  H13  1  0.46415390  0.25225948  0.65387324  1
  H  H14  1  0.04610990  0.24547368  0.21740930  1
  H  H15  1  0.87839916  0.17075494  0.11010684  1
  H  H16  1  0.87869640  0.33657915  0.09548691  1
  H  H17  1  0.15813659  0.18265071  0.96296437  1
  H  H18  1  0.17723734  0.33890991  0.95564043  1
  H  H19  1  0.01130539  0.27575372  0.84886671  1
  H  H20  1  0.45387430  0.74544372  0.71742160  1
  H  H21  1  0.62159757  0.67077341  0.61005936  1
  H  H22  1  0.62127563  0.83659201  0.59552225  1
  H  H23  1  0.32272707  0.83893778  0.45570984  1
  H  H24  1  0.34186495  0.68268189  0.46293659  1
  H  H25  1  0.48867638  0.77583973  0.34888698  1
  H  H26  1  0.95922956  0.74014614  0.79682310  1
  H  H27  1  0.13830407  0.82799668  0.86845397  1
  H  H28  1  0.14157145  0.66086911  0.91497004  1
  H  H29  1  0.87737027  0.83274029  0.03587160  1
  H  H30  1  0.86600941  0.67789925  0.08091808  1
  H  H31  1  0.03571779  0.75210995  0.15382408  1
  Ta  Ta32  1  0.51357883  0.99466885  0.00364617  1
  Ta  Ta33  1  0.98642757  0.49467061  0.50356240  1
  Au  Au34  1  0.11608467  0.97841961  0.45442133  1
  Au  Au35  1  0.38387789  0.47840851  0.95423847  1
  Cl  Cl36  1  0.53764451  0.21293853  0.96996845  1
  Cl  Cl37  1  0.22256184  0.99059870  0.11604013  1
  Cl  Cl38  1  0.66154031  0.98854497  0.26561585  1
  Cl  Cl39  1  0.98203089  0.27231210  0.54521832  1
  Cl  Cl40  1  0.37574601  0.01180567  0.73734767  1
  Cl  Cl41  1  0.79807954  0.99680554  0.85307230  1
  Cl  Cl42  1  0.51796289  0.77230979  0.04523659  1
  Cl  Cl43  1  0.70192826  0.49676282  0.35304070  1
  Cl  Cl44  1  0.12427355  0.51178062  0.23724944  1
  Cl  Cl45  1  0.96234221  0.71294659  0.46979875  1
  Cl  Cl46  1  0.27745596  0.49061155  0.61589308  1
  Cl  Cl47  1  0.83854294  0.48860921  0.76557205  1
