# generated using pymatgen
data_TlH12IrC2(NCl3)2
_symmetry_space_group_name_H-M   'P 1'
_cell_length_a   7.75743026
_cell_length_b   10.90559761
_cell_length_c   7.41256882
_cell_angle_alpha   85.30081271
_cell_angle_beta   89.99186549
_cell_angle_gamma   90.03033521
_symmetry_Int_Tables_number   1
_chemical_formula_structural   TlH12IrC2(NCl3)2
_chemical_formula_sum   'Tl2 H24 Ir2 C4 N4 Cl12'
_cell_volume   624.99090934
_cell_formula_units_Z   2
loop_
 _symmetry_equiv_pos_site_id
 _symmetry_equiv_pos_as_xyz
  1  'x, y, z'
loop_
 _atom_site_type_symbol
 _atom_site_label
 _atom_site_symmetry_multiplicity
 _atom_site_fract_x
 _atom_site_fract_y
 _atom_site_fract_z
 _atom_site_occupancy
  C  C0  1  0.39650144  0.24994471  0.41066787  1
  C  C1  1  0.89734437  0.25007112  0.09011763  1
  C  C2  1  0.60349554  0.75005985  0.58934509  1
  C  C3  1  0.10266078  0.74993112  0.90989351  1
  N  N4  1  0.55389334  0.24589838  0.52365597  1
  N  N5  1  0.05420050  0.25403375  0.97626905  1
  N  N6  1  0.44610363  0.75410754  0.47635681  1
  N  N7  1  0.94580433  0.74596582  0.02374175  1
  H  H8  1  0.43444199  0.25199837  0.26837892  1
  H  H9  1  0.32252016  0.16623347  0.44577152  1
  H  H10  1  0.32159126  0.33103562  0.43720869  1
  H  H11  1  0.62641277  0.17015182  0.49659868  1
  H  H12  1  0.62857289  0.32444577  0.49455951  1
  H  H13  1  0.52452216  0.23807705  0.66204278  1
  H  H14  1  0.93595997  0.24798725  0.23217424  1
  H  H15  1  0.82204107  0.16902039  0.06397532  1
  H  H16  1  0.82345442  0.33384099  0.05548189  1
  H  H17  1  0.12881937  0.17547137  0.00510115  1
  H  H18  1  0.12705425  0.32977508  0.00284496  1
  H  H19  1  0.02425452  0.26180450  0.83805509  1
  H  H20  1  0.56555576  0.74800828  0.73163367  1
  H  H21  1  0.67840368  0.66896773  0.56280535  1
  H  H22  1  0.67747917  0.83376998  0.55423902  1
  H  H23  1  0.37358537  0.82985458  0.50341427  1
  H  H24  1  0.37142273  0.67556043  0.50545355  1
  H  H25  1  0.47547476  0.76192833  0.33797051  1
  H  H26  1  0.06404500  0.75201669  0.76783642  1
  H  H27  1  0.17796298  0.83098191  0.93603805  1
  H  H28  1  0.17655165  0.66616143  0.94452635  1
  H  H29  1  0.87118339  0.82452685  0.99491060  1
  H  H30  1  0.87295355  0.67022317  0.99716515  1
  H  H31  1  0.97575026  0.73819508  0.16195603  1
  Ir  Ir32  1  0.50000216  0.00000199  0.00000756  1
  Ir  Ir33  1  0.99999891  0.50000166  0.50000577  1
  Tl  Tl34  1  0.99999979  0.00000216  0.50000713  1
  Tl  Tl35  1  0.50000039  0.50000220  0.00000518  1
  Cl  Cl36  1  0.47670964  0.21634400  0.94217171  1
  Cl  Cl37  1  0.22912981  0.00041876  0.14964888  1
  Cl  Cl38  1  0.64128821  0.01386243  0.28247939  1
  Cl  Cl39  1  0.97621781  0.28366422  0.55811491  1
  Cl  Cl40  1  0.35871486  0.98614281  0.71753614  1
  Cl  Cl41  1  0.77087484  0.99958355  0.85036679  1
  Cl  Cl42  1  0.52329523  0.78366010  0.05784346  1
  Cl  Cl43  1  0.72932678  0.49946195  0.35011300  1
  Cl  Cl44  1  0.14155334  0.48619792  0.21763388  1
  Cl  Cl45  1  0.02377925  0.71633907  0.44189741  1
  Cl  Cl46  1  0.27067107  0.50054161  0.64989838  1
  Cl  Cl47  1  0.85844459  0.51380541  0.78237765  1
