# generated using pymatgen
data_AsH12C2(I2N)3
_symmetry_space_group_name_H-M   'P 1'
_cell_length_a   8.77588968
_cell_length_b   10.47585035
_cell_length_c   8.58034470
_cell_angle_alpha   91.00092510
_cell_angle_beta   89.34848691
_cell_angle_gamma   92.79293849
_symmetry_Int_Tables_number   1
_chemical_formula_structural   AsH12C2(I2N)3
_chemical_formula_sum   'As2 H24 C4 I12 N6'
_cell_volume   787.73224677
_cell_formula_units_Z   2
loop_
 _symmetry_equiv_pos_site_id
 _symmetry_equiv_pos_as_xyz
  1  'x, y, z'
loop_
 _atom_site_type_symbol
 _atom_site_label
 _atom_site_symmetry_multiplicity
 _atom_site_fract_x
 _atom_site_fract_y
 _atom_site_fract_z
 _atom_site_occupancy
  C  C0  1  0.46708479  0.24741796  0.45388836  1
  C  C1  1  0.95400690  0.26793628  0.05678029  1
  C  C2  1  0.54780595  0.75435953  0.55887744  1
  C  C3  1  0.05140320  0.72935018  0.94227199  1
  N  N4  1  0.57741172  0.21825599  0.57692167  1
  N  N5  1  0.07224011  0.25909815  0.93247422  1
  N  N6  1  0.42674132  0.76339418  0.44032942  1
  N  N7  1  0.91265714  0.73394452  0.04122674  1
  H  H8  1  0.53031978  0.26948975  0.34636884  1
  H  H9  1  0.39059569  0.16322085  0.43442325  1
  H  H10  1  0.40172803  0.32851429  0.49276619  1
  H  H11  1  0.65314419  0.15195209  0.53589997  1
  H  H12  1  0.64123011  0.29932270  0.61518468  1
  H  H13  1  0.52189121  0.17929131  0.67396859  1
  H  H14  1  0.00691631  0.25435267  0.16971436  1
  H  H15  1  0.86422177  0.19382107  0.03538837  1
  H  H16  1  0.90653172  0.36232053  0.05276335  1
  H  H17  1  0.12167385  0.17120662  0.93165377  1
  H  H18  1  0.15933822  0.32877150  0.94754848  1
  H  H19  1  0.02860302  0.27129867  0.82140480  1
  H  H20  1  0.49713409  0.76847241  0.67462249  1
  H  H21  1  0.59613435  0.66030746  0.55018957  1
  H  H22  1  0.63622339  0.82922812  0.53660888  1
  H  H23  1  0.36277634  0.84255257  0.46593264  1
  H  H24  1  0.35154504  0.68381627  0.43869620  1
  H  H25  1  0.47041217  0.77234506  0.32730027  1
  H  H26  1  0.02076618  0.72751454  0.81894321  1
  H  H27  1  0.12727837  0.81285512  0.96703149  1
  H  H28  1  0.11017278  0.64271177  0.96892651  1
  H  H29  1  0.88082708  0.82572295  0.06515466  1
  H  H30  1  0.82222163  0.68647241  0.98542469  1
  H  H31  1  0.92738329  0.68202836  0.15509189  1
  N  N32  1  0.43214378  0.02812953  0.14139872  1
  N  N33  1  0.94011574  0.59349135  0.29630952  1
  As  As34  1  0.00142006  0.01617584  0.51132808  1
  As  As35  1  0.49368807  0.52806727  0.99729357  1
  I  I36  1  0.49770525  0.19399627  0.01628772  1
  I  I37  1  0.19592806  0.01079747  0.18785008  1
  I  I38  1  0.76243444  0.00194247  0.29452923  1
  I  I39  1  0.01514594  0.27582363  0.51569170  1
  I  I40  1  0.27235992  0.98909827  0.69529876  1
  I  I41  1  0.81828017  0.99287589  0.76999577  1
  I  I42  1  0.49248980  0.78604540  0.02319820  1
  I  I43  1  0.71543828  0.51073554  0.29559225  1
  I  I44  1  0.25889646  0.49257175  0.21929199  1
  I  I45  1  0.99965069  0.71293590  0.48585963  1
  I  I46  1  0.30831303  0.49904489  0.74710516  1
  I  I47  1  0.75759430  0.48700092  0.78948891  1
