# generated using pymatgen
data_H12IrAuC2(NCl3)2
_symmetry_space_group_name_H-M   'P 1'
_cell_length_a   7.60699069
_cell_length_b   9.24712802
_cell_length_c   8.60257820
_cell_angle_alpha   81.05067222
_cell_angle_beta   90.00373524
_cell_angle_gamma   89.99241105
_symmetry_Int_Tables_number   1
_chemical_formula_structural   H12IrAuC2(NCl3)2
_chemical_formula_sum   'H24 Ir2 Au2 C4 N4 Cl12'
_cell_volume   597.76291176
_cell_formula_units_Z   2
loop_
 _symmetry_equiv_pos_site_id
 _symmetry_equiv_pos_as_xyz
  1  'x, y, z'
loop_
 _atom_site_type_symbol
 _atom_site_label
 _atom_site_symmetry_multiplicity
 _atom_site_fract_x
 _atom_site_fract_y
 _atom_site_fract_z
 _atom_site_occupancy
  C  C0  1  0.43354162  0.20564965  0.43068804  1
  C  C1  1  0.99651858  0.30871006  0.06099363  1
  C  C2  1  0.50285769  0.80876490  0.56091322  1
  C  C3  1  0.06640661  0.70598026  0.93045544  1
  N  N4  1  0.51235275  0.26253697  0.56680400  1
  N  N5  1  0.04992967  0.22093930  0.93896033  1
  N  N6  1  0.45028012  0.72081111  0.43882919  1
  N  N7  1  0.98793388  0.76253196  0.06688775  1
  H  H8  1  0.53919482  0.16622823  0.36166390  1
  H  H9  1  0.34177200  0.11775863  0.47328484  1
  H  H10  1  0.36505728  0.29545077  0.35757673  1
  H  H11  1  0.57077071  0.18121994  0.64681465  1
  H  H12  1  0.60678956  0.34060028  0.52766433  1
  H  H13  1  0.41826525  0.31348211  0.62801578  1
  H  H14  1  0.10445013  0.31036375  0.14437453  1
  H  H15  1  0.87787204  0.26095385  0.12033674  1
  H  H16  1  0.96583562  0.41987508  0.00503332  1
  H  H17  1  0.12641232  0.13207411  0.98597725  1
  H  H18  1  0.12635604  0.28363840  0.85332794  1
  H  H19  1  0.94296557  0.18012845  0.88414139  1
  H  H20  1  0.39426394  0.81089512  0.64351226  1
  H  H21  1  0.62089476  0.76078407  0.62124390  1
  H  H22  1  0.53430530  0.91974518  0.50487561  1
  H  H23  1  0.37409057  0.78340545  0.35288050  1
  H  H24  1  0.37374258  0.63193106  0.48563467  1
  H  H25  1  0.55756475  0.68002005  0.38441140  1
  H  H26  1  0.96057661  0.66686882  0.86137950  1
  H  H27  1  0.13489801  0.79588084  0.85751615  1
  H  H28  1  0.15814733  0.61791851  0.97267640  1
  H  H29  1  0.89331765  0.84061311  0.02812957  1
  H  H30  1  0.92978185  0.68108773  0.14688543  1
  H  H31  1  0.08212180  0.81343649  0.12804249  1
  Ir  Ir32  1  0.51184618  0.99115948  0.01725599  1
  Ir  Ir33  1  0.98826780  0.49106410  0.51722363  1
  Au  Au34  1  0.85750581  0.09696030  0.37640522  1
  Au  Au35  1  0.64261092  0.59702000  0.87633485  1
  Cl  Cl36  1  0.51505261  0.24384155  0.01462252  1
  Cl  Cl37  1  0.26937819  0.97661199  0.19577990  1
  Cl  Cl38  1  0.71766835  0.94022042  0.22925924  1
  Cl  Cl39  1  0.00824968  0.22774299  0.54099876  1
  Cl  Cl40  1  0.31527024  0.01908673  0.80627097  1
  Cl  Cl41  1  0.74525738  0.00446740  0.83485698  1
  Cl  Cl42  1  0.49182022  0.72784007  0.04088754  1
  Cl  Cl43  1  0.75485900  0.50432435  0.33478756  1
  Cl  Cl44  1  0.18485834  0.51886917  0.30625514  1
  Cl  Cl45  1  0.98492777  0.74375946  0.51446225  1
  Cl  Cl46  1  0.23074932  0.47658703  0.69576042  1
  Cl  Cl47  1  0.78243450  0.44023899  0.72920475  1
