# generated using pymatgen
data_H12PtPbC2(NCl3)2
_symmetry_space_group_name_H-M   'P 1'
_cell_length_a   7.41123176
_cell_length_b   12.37151283
_cell_length_c   7.03440354
_cell_angle_alpha   92.57235051
_cell_angle_beta   89.98996251
_cell_angle_gamma   89.99669118
_symmetry_Int_Tables_number   1
_chemical_formula_structural   H12PtPbC2(NCl3)2
_chemical_formula_sum   'H24 Pt2 Pb2 C4 N4 Cl12'
_cell_volume   644.32151814
_cell_formula_units_Z   2
loop_
 _symmetry_equiv_pos_site_id
 _symmetry_equiv_pos_as_xyz
  1  'x, y, z'
loop_
 _atom_site_type_symbol
 _atom_site_label
 _atom_site_symmetry_multiplicity
 _atom_site_fract_x
 _atom_site_fract_y
 _atom_site_fract_z
 _atom_site_occupancy
  C  C0  1  0.39708002  0.24940317  0.41464403  1
  C  C1  1  0.89774181  0.25061377  0.08560877  1
  C  C2  1  0.60291807  0.75059702  0.58537024  1
  C  C3  1  0.10226134  0.74939433  0.91440166  1
  N  N4  1  0.57441159  0.25315069  0.51032280  1
  N  N5  1  0.07481753  0.24684269  0.98934003  1
  N  N6  1  0.42558684  0.74685520  0.48969099  1
  N  N7  1  0.92518420  0.75315896  0.01066808  1
  H  H8  1  0.41896269  0.24418563  0.26081620  1
  H  H9  1  0.32553310  0.17780998  0.45925698  1
  H  H10  1  0.32052607  0.32216446  0.45690211  1
  H  H11  1  0.64938043  0.18487366  0.47486004  1
  H  H12  1  0.64910736  0.32009587  0.47351611  1
  H  H13  1  0.55788597  0.25775360  0.65909948  1
  H  H14  1  0.92001657  0.25585949  0.23936681  1
  H  H15  1  0.82108887  0.17785704  0.04363872  1
  H  H16  1  0.82605883  0.32221115  0.04119971  1
  H  H17  1  0.14958291  0.17987793  0.02594334  1
  H  H18  1  0.14990640  0.31508317  0.02452109  1
  H  H19  1  0.05787127  0.24221386  0.84061574  1
  H  H20  1  0.58103350  0.75582143  0.73919945  1
  H  H21  1  0.67947873  0.67784223  0.54311822  1
  H  H22  1  0.67446356  0.82219751  0.54075452  1
  H  H23  1  0.35061992  0.81511913  0.52514734  1
  H  H24  1  0.35089607  0.67989889  0.52649781  1
  H  H25  1  0.44211774  0.74224370  0.34091325  1
  H  H26  1  0.07998830  0.74415064  0.76064375  1
  H  H27  1  0.17890870  0.82215213  0.95637693  1
  H  H28  1  0.17394862  0.67779766  0.95880839  1
  H  H29  1  0.85041395  0.82012243  0.97406558  1
  H  H30  1  0.85010190  0.68491668  0.97548330  1
  H  H31  1  0.94212822  0.75778749  0.15939274  1
  Pt  Pt32  1  0.49999990  0.00000155  0.00000581  1
  Pt  Pt33  1  0.00000059  0.50000029  0.50000933  1
  Pb  Pb34  1  0.99999863  0.00000193  0.50000518  1
  Pb  Pb35  1  0.49999892  0.50000344  0.00001031  1
  Cl  Cl36  1  0.47826825  0.27929959  0.93077386  1
  Cl  Cl37  1  0.21926466  0.01912292  0.14797237  1
  Cl  Cl38  1  0.64666597  0.00759516  0.29419590  1
  Cl  Cl39  1  0.97761940  0.22066997  0.56936951  1
  Cl  Cl40  1  0.35333261  0.99240557  0.70581577  1
  Cl  Cl41  1  0.78073535  0.98088081  0.85204039  1
  Cl  Cl42  1  0.52173508  0.72070816  0.06923818  1
  Cl  Cl43  1  0.71931709  0.48087660  0.35201807  1
  Cl  Cl44  1  0.14671293  0.49239300  0.20579451  1
  Cl  Cl45  1  0.02238168  0.77933466  0.43063929  1
  Cl  Cl46  1  0.28068371  0.51912339  0.64800066  1
  Cl  Cl47  1  0.85328785  0.50760963  0.79422325  1
