# generated using pymatgen
data_HgH12PtC2(NCl3)2
_symmetry_space_group_name_H-M   'P 1'
_cell_length_a   7.15293595
_cell_length_b   10.63492164
_cell_length_c   8.02831385
_cell_angle_alpha   86.20423895
_cell_angle_beta   89.99936944
_cell_angle_gamma   89.99970216
_symmetry_Int_Tables_number   1
_chemical_formula_structural   HgH12PtC2(NCl3)2
_chemical_formula_sum   'Hg2 H24 Pt2 C4 N4 Cl12'
_cell_volume   609.38147007
_cell_formula_units_Z   2
loop_
 _symmetry_equiv_pos_site_id
 _symmetry_equiv_pos_as_xyz
  1  'x, y, z'
loop_
 _atom_site_type_symbol
 _atom_site_label
 _atom_site_symmetry_multiplicity
 _atom_site_fract_x
 _atom_site_fract_y
 _atom_site_fract_z
 _atom_site_occupancy
  C  C0  1  0.45393642  0.24458381  0.38837736  1
  C  C1  1  0.95475532  0.25047500  0.11103931  1
  C  C2  1  0.54526303  0.75044589  0.61100147  1
  C  C3  1  0.04610326  0.74462183  0.88839068  1
  N  N4  1  0.52354510  0.25436068  0.56109078  1
  N  N5  1  0.02745788  0.25489112  0.93770601  1
  N  N6  1  0.47247904  0.75498168  0.43769182  1
  N  N7  1  0.97644903  0.75426045  0.06111749  1
  H  H8  1  0.57303444  0.25140855  0.30323373  1
  H  H9  1  0.38435959  0.15381660  0.38001757  1
  H  H10  1  0.35659898  0.32226633  0.36005544  1
  H  H11  1  0.61657795  0.18328068  0.59644720  1
  H  H12  1  0.59261372  0.33896735  0.57090724  1
  H  H13  1  0.41637870  0.25028147  0.64764529  1
  H  H14  1  0.07298488  0.25183594  0.19683454  1
  H  H15  1  0.87472983  0.16355447  0.13336745  1
  H  H16  1  0.86632572  0.33286178  0.12550964  1
  H  H17  1  0.12970266  0.18713795  0.92619442  1
  H  H18  1  0.08764818  0.34085722  0.90185895  1
  H  H19  1  0.92340562  0.23936502  0.85201989  1
  H  H20  1  0.42707914  0.75193766  0.69683721  1
  H  H21  1  0.62506577  0.66342575  0.63327983  1
  H  H22  1  0.63392037  0.83272005  0.62547200  1
  H  H23  1  0.41252468  0.84103619  0.40190243  1
  H  H24  1  0.37001608  0.68737963  0.42618821  1
  H  H25  1  0.57644435  0.73934559  0.35195840  1
  H  H26  1  0.92698783  0.75129972  0.80325897  1
  H  H27  1  0.14321030  0.82243487  0.86008825  1
  H  H28  1  0.11594670  0.65394736  0.87999220  1
  H  H29  1  0.90711241  0.83876615  0.07098279  1
  H  H30  1  0.88365849  0.68304090  0.09645922  1
  H  H31  1  0.08363855  0.75031909  0.14765444  1
  Pt  Pt32  1  0.50409471  0.99691860  0.00121167  1
  Pt  Pt33  1  0.99590072  0.49690554  0.50130550  1
  Hg  Hg34  1  0.00441819  0.99810452  0.50128270  1
  Hg  Hg35  1  0.49559478  0.49810689  0.00140678  1
  Cl  Cl36  1  0.47187858  0.21381504  0.96086222  1
  Cl  Cl37  1  0.23537068  0.98493378  0.16440910  1
  Cl  Cl38  1  0.73856673  0.99058072  0.33278198  1
  Cl  Cl39  1  0.96822261  0.27929877  0.53898419  1
  Cl  Cl40  1  0.27249432  0.00556078  0.66702634  1
  Cl  Cl41  1  0.77539075  0.01086491  0.84091321  1
  Cl  Cl42  1  0.53177723  0.77931286  0.03892571  1
  Cl  Cl43  1  0.72459909  0.51087742  0.34101879  1
  Cl  Cl44  1  0.22752182  0.50555907  0.16715006  1
  Cl  Cl45  1  0.02816654  0.71379570  0.46093243  1
  Cl  Cl46  1  0.26458173  0.48490829  0.66455402  1
  Cl  Cl47  1  0.76149120  0.49062861  0.83295164  1
