# generated using pymatgen
data_BiH12AuC2(NCl3)2
_symmetry_space_group_name_H-M   'P 1'
_cell_length_a   7.71601154
_cell_length_b   11.74035188
_cell_length_c   7.55978920
_cell_angle_alpha   94.75123905
_cell_angle_beta   75.90261527
_cell_angle_gamma   89.61877153
_symmetry_Int_Tables_number   1
_chemical_formula_structural   BiH12AuC2(NCl3)2
_chemical_formula_sum   'Bi2 H24 Au2 C4 N4 Cl12'
_cell_volume   661.66898527
_cell_formula_units_Z   2
loop_
 _symmetry_equiv_pos_site_id
 _symmetry_equiv_pos_as_xyz
  1  'x, y, z'
loop_
 _atom_site_type_symbol
 _atom_site_label
 _atom_site_symmetry_multiplicity
 _atom_site_fract_x
 _atom_site_fract_y
 _atom_site_fract_z
 _atom_site_occupancy
  C  C0  1  0.41732546  0.24984072  0.41325756  1
  C  C1  1  0.91711771  0.24692034  0.09009654  1
  C  C2  1  0.58267460  0.75016693  0.58675288  1
  C  C3  1  0.08288574  0.75308415  0.90991500  1
  N  N4  1  0.57465817  0.26430424  0.49216673  1
  N  N5  1  0.08083251  0.23904649  0.93811579  1
  N  N6  1  0.42534198  0.73569651  0.50784623  1
  N  N7  1  0.91916667  0.76095208  0.06189942  1
  H  H8  1  0.46311732  0.24080491  0.26381720  1
  H  H9  1  0.34987417  0.17265927  0.46128641  1
  H  H10  1  0.32808757  0.32500288  0.45777071  1
  H  H11  1  0.66066672  0.19331752  0.45229248  1
  H  H12  1  0.64112421  0.33748379  0.44947265  1
  H  H13  1  0.53996210  0.27205340  0.63537306  1
  H  H14  1  0.95670017  0.24889794  0.21992699  1
  H  H15  1  0.83659072  0.17220040  0.07376209  1
  H  H16  1  0.84293758  0.32562453  0.08452856  1
  H  H17  1  0.15305985  0.16415968  0.93663421  1
  H  H18  1  0.16447469  0.30578411  0.95176709  1
  H  H19  1  0.04820092  0.24001216  0.81135286  1
  H  H20  1  0.53688692  0.75920049  0.73619268  1
  H  H21  1  0.67192110  0.67500780  0.54223495  1
  H  H22  1  0.65011712  0.82735110  0.53872408  1
  H  H23  1  0.33932628  0.80667923  0.54772300  1
  H  H24  1  0.35888299  0.66251356  0.55054230  1
  H  H25  1  0.46003478  0.72794770  0.36464042  1
  H  H26  1  0.04329959  0.75110394  0.78008672  1
  H  H27  1  0.16340171  0.82780821  0.92625060  1
  H  H28  1  0.15707214  0.67438447  0.91548289  1
  H  H29  1  0.84693151  0.83583261  0.06337609  1
  H  H30  1  0.83553903  0.69420785  0.04824795  1
  H  H31  1  0.95180177  0.75999153  0.18865952  1
  Au  Au32  1  0.50000187  0.00000175  0.00000754  1
  Au  Au33  1  0.00000003  0.50000282  0.50000484  1
  Bi  Bi34  1  0.00000124  0.00000261  0.50000744  1
  Bi  Bi35  1  0.49999987  0.50000259  0.00000579  1
  Cl  Cl36  1  0.50795146  0.27090428  0.92622402  1
  Cl  Cl37  1  0.19829821  0.02543000  0.14208590  1
  Cl  Cl38  1  0.72182678  0.00383979  0.34579254  1
  Cl  Cl39  1  0.96167532  0.22841538  0.56835592  1
  Cl  Cl40  1  0.27817771  0.99616580  0.65421928  1
  Cl  Cl41  1  0.80170533  0.97457231  0.85792896  1
  Cl  Cl42  1  0.49204735  0.72910031  0.07378935  1
  Cl  Cl43  1  0.65209515  0.49753353  0.28322761  1
  Cl  Cl44  1  0.13972547  0.48650479  0.18981000  1
  Cl  Cl45  1  0.03832500  0.77158988  0.43165859  1
  Cl  Cl46  1  0.34790549  0.50247056  0.71678353  1
  Cl  Cl47  1  0.86027365  0.51350131  0.81019960  1
