# generated using pymatgen
data_HgH12PbC2(NCl3)2
_symmetry_space_group_name_H-M   'P 1'
_cell_length_a   7.74853614
_cell_length_b   11.07504083
_cell_length_c   7.47430726
_cell_angle_alpha   89.53097441
_cell_angle_beta   90.00090354
_cell_angle_gamma   90.00417669
_symmetry_Int_Tables_number   1
_chemical_formula_structural   HgH12PbC2(NCl3)2
_chemical_formula_sum   'Hg2 H24 Pb2 C4 N4 Cl12'
_cell_volume   641.38883248
_cell_formula_units_Z   2
loop_
 _symmetry_equiv_pos_site_id
 _symmetry_equiv_pos_as_xyz
  1  'x, y, z'
loop_
 _atom_site_type_symbol
 _atom_site_label
 _atom_site_symmetry_multiplicity
 _atom_site_fract_x
 _atom_site_fract_y
 _atom_site_fract_z
 _atom_site_occupancy
  C  C0  1  0.39298241  0.25030888  0.41146526  1
  C  C1  1  0.89400177  0.24982665  0.08949409  1
  C  C2  1  0.60701445  0.74969652  0.58854688  1
  C  C3  1  0.10600365  0.75017480  0.91051845  1
  N  N4  1  0.54951204  0.24949396  0.52451994  1
  N  N5  1  0.04991951  0.25048299  0.97553729  1
  N  N6  1  0.45048450  0.75051204  0.47549253  1
  N  N7  1  0.95008683  0.74951502  0.02447658  1
  H  H8  1  0.43202702  0.24970676  0.27105513  1
  H  H9  1  0.31878400  0.16900275  0.44128361  1
  H  H10  1  0.31771340  0.33091092  0.44054466  1
  H  H11  1  0.62247679  0.17367649  0.49553977  1
  H  H12  1  0.62401901  0.32540903  0.49727129  1
  H  H13  1  0.51957295  0.24785972  0.66092964  1
  H  H14  1  0.93384143  0.25043501  0.22965363  1
  H  H15  1  0.81840363  0.16927298  0.06092997  1
  H  H16  1  0.81980308  0.33119970  0.06011922  1
  H  H17  1  0.12442430  0.17452336  0.00248091  1
  H  H18  1  0.12313484  0.32625776  0.00406019  1
  H  H19  1  0.01929458  0.25208437  0.83929847  1
  H  H20  1  0.56797049  0.75030111  0.72895684  1
  H  H21  1  0.68228131  0.66909317  0.55946931  1
  H  H22  1  0.68121478  0.83100124  0.55872560  1
  H  H23  1  0.37752029  0.82632954  0.50447270  1
  H  H24  1  0.37597696  0.67459684  0.50274130  1
  H  H25  1  0.48042359  0.75214604  0.33908284  1
  H  H26  1  0.06616262  0.74956810  0.77035930  1
  H  H27  1  0.18160077  0.83072838  0.93908487  1
  H  H28  1  0.18020348  0.66880173  0.93988959  1
  H  H29  1  0.87557900  0.82547339  0.99753488  1
  H  H30  1  0.87687390  0.67373910  0.99595348  1
  H  H31  1  0.98071253  0.74791373  0.16071555  1
  Hg  Hg32  1  0.50000253  0.00000313  0.00000758  1
  Hg  Hg33  1  0.99999774  0.50000150  0.50000114  1
  Pb  Pb34  1  0.00000049  0.00000226  0.50000813  1
  Pb  Pb35  1  0.49999968  0.50000373  0.00000168  1
  Cl  Cl36  1  0.47166329  0.24557776  0.93942588  1
  Cl  Cl37  1  0.19692321  0.01006183  0.17228803  1
  Cl  Cl38  1  0.67626358  0.01239726  0.31245200  1
  Cl  Cl39  1  0.97102626  0.25440993  0.56108063  1
  Cl  Cl40  1  0.32373861  0.98760985  0.68756520  1
  Cl  Cl41  1  0.80308270  0.98993901  0.82772921  1
  Cl  Cl42  1  0.52834258  0.75442908  0.06058847  1
  Cl  Cl43  1  0.69692984  0.48979777  0.32762519  1
  Cl  Cl44  1  0.17634127  0.48770108  0.18762257  1
  Cl  Cl45  1  0.02897032  0.74559363  0.43893374  1
  Cl  Cl46  1  0.30306595  0.51020629  0.67237983  1
  Cl  Cl47  1  0.82365579  0.51230208  0.81238354  1
