# generated using pymatgen
data_TlBiH12C2(NCl3)2
_symmetry_space_group_name_H-M   'P 1'
_cell_length_a   8.33087946
_cell_length_b   11.51554301
_cell_length_c   7.59249824
_cell_angle_alpha   93.01808864
_cell_angle_beta   89.94061426
_cell_angle_gamma   90.03273125
_symmetry_Int_Tables_number   1
_chemical_formula_structural   TlBiH12C2(NCl3)2
_chemical_formula_sum   'Tl2 Bi2 H24 C4 N4 Cl12'
_cell_volume   727.37250359
_cell_formula_units_Z   2
loop_
 _symmetry_equiv_pos_site_id
 _symmetry_equiv_pos_as_xyz
  1  'x, y, z'
loop_
 _atom_site_type_symbol
 _atom_site_label
 _atom_site_symmetry_multiplicity
 _atom_site_fract_x
 _atom_site_fract_y
 _atom_site_fract_z
 _atom_site_occupancy
  C  C0  1  0.41832094  0.24600764  0.42944705  1
  C  C1  1  0.91704461  0.25403981  0.06942142  1
  C  C2  1  0.58167780  0.75399241  0.57056915  1
  C  C3  1  0.08295613  0.74596623  0.93058889  1
  N  N4  1  0.57702023  0.25588522  0.51818067  1
  N  N5  1  0.07533071  0.24396099  0.97951162  1
  N  N6  1  0.42298129  0.74411577  0.48182952  1
  N  N7  1  0.92467280  0.75604391  0.02050498  1
  H  H8  1  0.43749990  0.24430507  0.28659438  1
  H  H9  1  0.35986595  0.16591201  0.46690519  1
  H  H10  1  0.34629251  0.32200075  0.47099328  1
  H  H11  1  0.64806447  0.18413659  0.48153616  1
  H  H12  1  0.63450323  0.33070215  0.47961688  1
  H  H13  1  0.56368826  0.26047281  0.65516463  1
  H  H14  1  0.93686876  0.25591541  0.21212741  1
  H  H15  1  0.84465581  0.17805770  0.02862211  1
  H  H16  1  0.85861202  0.33412014  0.03218726  1
  H  H17  1  0.13276380  0.16909607  0.01756705  1
  H  H18  1  0.14675673  0.31560739  0.01575877  1
  H  H19  1  0.06143508  0.23945431  0.84260583  1
  H  H20  1  0.56249371  0.75570025  0.71342130  1
  H  H21  1  0.65370371  0.67799603  0.52903226  1
  H  H22  1  0.64013836  0.83408496  0.53310720  1
  H  H23  1  0.35193816  0.81586609  0.51846814  1
  H  H24  1  0.36549445  0.66930074  0.52039431  1
  H  H25  1  0.43631754  0.73952544  0.34484589  1
  H  H26  1  0.06312722  0.74409086  0.78788371  1
  H  H27  1  0.15534515  0.82194885  0.97138572  1
  H  H28  1  0.14139094  0.66588626  0.96782034  1
  H  H29  1  0.86723872  0.83090960  0.98245418  1
  H  H30  1  0.85324522  0.68439855  0.98425755  1
  H  H31  1  0.93857216  0.76054865  0.15741037  1
  Tl  Tl32  1  0.50000093  0.00000149  0.00000674  1
  Tl  Tl33  1  0.00000036  0.50000036  0.50000255  1
  Bi  Bi34  1  0.00000128  0.00000131  0.50000770  1
  Bi  Bi35  1  0.49999959  0.50000218  0.00000333  1
  Cl  Cl36  1  0.48991005  0.26628243  0.92845543  1
  Cl  Cl37  1  0.16311223  0.02193452  0.19382845  1
  Cl  Cl38  1  0.71315712  0.01796044  0.33730003  1
  Cl  Cl39  1  0.98904293  0.23379117  0.56978727  1
  Cl  Cl40  1  0.28684637  0.98204097  0.66271251  1
  Cl  Cl41  1  0.83689117  0.97807054  0.80618729  1
  Cl  Cl42  1  0.51009355  0.73372120  0.07155803  1
  Cl  Cl43  1  0.66349658  0.47855753  0.30570838  1
  Cl  Cl44  1  0.21286161  0.48085874  0.16232021  1
  Cl  Cl45  1  0.01095970  0.76621114  0.43022807  1
  Cl  Cl46  1  0.33650207  0.52144356  0.69429768  1
  Cl  Cl47  1  0.78713185  0.51915207  0.83767970  1
