# generated using pymatgen
data_BeH5CI3N2
_symmetry_space_group_name_H-M   'P 1'
_cell_length_a   7.15793609
_cell_length_b   14.25972675
_cell_length_c   8.66937700
_cell_angle_alpha   89.99741862
_cell_angle_beta   90.02845370
_cell_angle_gamma   89.93467167
_symmetry_Int_Tables_number   1
_chemical_formula_structural   BeH5CI3N2
_chemical_formula_sum   'Be4 H20 C4 I12 N8'
_cell_volume   884.88446929
_cell_formula_units_Z   4
loop_
 _symmetry_equiv_pos_site_id
 _symmetry_equiv_pos_as_xyz
  1  'x, y, z'
loop_
 _atom_site_type_symbol
 _atom_site_label
 _atom_site_symmetry_multiplicity
 _atom_site_fract_x
 _atom_site_fract_y
 _atom_site_fract_z
 _atom_site_occupancy
  C  C0  1  0.45640722  0.32651884  0.48319662  1
  C  C1  1  0.95372122  0.17401930  0.01718530  1
  C  C2  1  0.54595067  0.82595529  0.51672664  1
  C  C3  1  0.04401892  0.67344737  0.98291622  1
  N  N4  1  0.46034148  0.31733991  0.63358650  1
  N  N5  1  0.45149918  0.25688341  0.38429023  1
  N  N6  1  0.95909691  0.18264942  0.86673702  1
  N  N7  1  0.95424472  0.24400147  0.11554993  1
  N  N8  1  0.54583069  0.75612940  0.61538944  1
  N  N9  1  0.54068369  0.81706531  0.36629415  1
  N  N10  1  0.04853969  0.74316305  0.88416434  1
  N  N11  1  0.03986956  0.68250700  0.13331330  1
  H  H12  1  0.45766324  0.39779404  0.43669903  1
  H  H13  1  0.46711984  0.37607860  0.70058914  1
  H  H14  1  0.45970697  0.25418541  0.68972062  1
  H  H15  1  0.44168120  0.27050184  0.26879922  1
  H  H16  1  0.44187206  0.18846480  0.41896491  1
  H  H17  1  0.94930862  0.10292363  0.06429094  1
  H  H18  1  0.96007418  0.12357640  0.80033179  1
  H  H19  1  0.96277519  0.24558502  0.81006673  1
  H  H20  1  0.94349511  0.23101433  0.23117961  1
  H  H21  1  0.95055824  0.31243804  0.08040692  1
  H  H22  1  0.54994966  0.89713944  0.56350855  1
  H  H23  1  0.55638030  0.76933050  0.73096970  1
  H  H24  1  0.55001568  0.68764745  0.58055547  1
  H  H25  1  0.53949513  0.87601970  0.29960651  1
  H  H26  1  0.53724814  0.75403772  0.30994424  1
  H  H27  1  0.04325683  0.60220558  0.93627564  1
  H  H28  1  0.05874461  0.72967876  0.76866281  1
  H  H29  1  0.05762471  0.81157794  0.91902234  1
  H  H30  1  0.03327889  0.62371327  0.20020898  1
  H  H31  1  0.04023182  0.74562780  0.18955198  1
  Be  Be32  1  0.47303398  0.02741457  0.97234706  1
  Be  Be33  1  0.97517757  0.47247292  0.52733026  1
  Be  Be34  1  0.02643784  0.97266972  0.47217429  1
  Be  Be35  1  0.52508902  0.52768998  0.02706421  1
  I  I36  1  0.46282043  0.18883645  0.98431387  1
  I  I37  1  0.23956337  0.94695030  0.09947478  1
  I  I38  1  0.77370010  0.04934177  0.36605446  1
  I  I39  1  0.96369456  0.31110414  0.51618641  1
  I  I40  1  0.25981180  0.05322149  0.59945218  1
  I  I41  1  0.72551032  0.95066130  0.86614593  1
  I  I42  1  0.53648199  0.68904554  0.01581567  1
  I  I43  1  0.74174864  0.55331712  0.40020576  1
  I  I44  1  0.27387714  0.45125074  0.13523111  1
  I  I45  1  0.03704214  0.81124581  0.48406563  1
  I  I46  1  0.22676739  0.54878889  0.63530221  1
  I  I47  1  0.75857868  0.44683219  0.90023614  1
