# generated using pymatgen
data_BH5CI3N2
_symmetry_space_group_name_H-M   'P 1'
_cell_length_a   7.37069418
_cell_length_b   11.56836296
_cell_length_c   10.56324648
_cell_angle_alpha   81.08706320
_cell_angle_beta   89.86437190
_cell_angle_gamma   78.96480020
_symmetry_Int_Tables_number   1
_chemical_formula_structural   BH5CI3N2
_chemical_formula_sum   'B4 H20 C4 I12 N8'
_cell_volume   873.02006016
_cell_formula_units_Z   4
loop_
 _symmetry_equiv_pos_site_id
 _symmetry_equiv_pos_as_xyz
  1  'x, y, z'
loop_
 _atom_site_type_symbol
 _atom_site_label
 _atom_site_symmetry_multiplicity
 _atom_site_fract_x
 _atom_site_fract_y
 _atom_site_fract_z
 _atom_site_occupancy
  C  C0  1  0.42371543  0.24239427  0.40400396  1
  C  C1  1  0.94848538  0.20664977  0.14022635  1
  C  C2  1  0.40877491  0.89301780  0.47822533  1
  C  C3  1  0.04161320  0.70915533  0.97027616  1
  N  N4  1  0.49681776  0.20482837  0.52310836  1
  N  N5  1  0.44788308  0.19081061  0.30209229  1
  N  N6  1  0.12857175  0.19745692  0.13396203  1
  N  N7  1  0.84201803  0.24280846  0.23251404  1
  N  N8  1  0.56284397  0.81325642  0.49490500  1
  N  N9  1  0.24512534  0.87129288  0.45095161  1
  N  N10  1  0.05305718  0.75698822  0.85008383  1
  N  N11  1  0.12682052  0.73499542  0.06759134  1
  H  H12  1  0.32801726  0.32857754  0.39353120  1
  H  H13  1  0.46757607  0.25846608  0.59107684  1
  H  H14  1  0.60510576  0.13409336  0.54362595  1
  H  H15  1  0.61295591  0.53805746  0.08243598  1
  H  H16  1  0.53587776  0.10867344  0.31877309  1
  H  H17  1  0.87836883  0.18392660  0.05894003  1
  H  H18  1  0.18649976  0.16433773  0.05546842  1
  H  H19  1  0.22313876  0.20617159  0.20438417  1
  H  H20  1  0.70337679  0.24055385  0.22958924  1
  H  H21  1  0.89503056  0.25937196  0.31600051  1
  H  H22  1  0.41598781  0.98490490  0.48733533  1
  H  H23  1  0.68323965  0.83873264  0.51776378  1
  H  H24  1  0.56808038  0.72585736  0.48338955  1
  H  H25  1  0.10995971  0.06535496  0.39524953  1
  H  H26  1  0.23576620  0.78424272  0.44882607  1
  H  H27  1  0.95449168  0.64223482  0.99050127  1
  H  H28  1  0.97055395  0.73781643  0.78203260  1
  H  H29  1  0.12053558  0.82626466  0.82437228  1
  H  H30  1  0.10616422  0.69235113  0.15740684  1
  H  H31  1  0.20961709  0.79771487  0.06143637  1
  B  B32  1  0.46986890  0.95860052  0.93154119  1
  B  B33  1  0.89812787  0.48245318  0.45340423  1
  B  B34  1  0.07530952  0.96711000  0.41803979  1
  B  B35  1  0.59548394  0.48811541  0.99387164  1
  I  I36  1  0.66275724  0.08631089  0.88959735  1
  I  I37  1  0.45415960  0.89988229  0.14283240  1
  I  I38  1  0.91100871  0.92446272  0.26014218  1
  I  I39  1  0.97756227  0.29596212  0.55923177  1
  I  I40  1  0.18996499  0.05394728  0.84927334  1
  I  I41  1  0.88736197  0.96904799  0.59247220  1
  I  I42  1  0.54859438  0.79067996  0.84036611  1
  I  I43  1  0.58549966  0.52475743  0.42706055  1
  I  I44  1  0.02961661  0.49175533  0.25992350  1
  I  I45  1  0.01321639  0.60936098  0.56007386  1
  I  I46  1  0.34640436  0.43096038  0.96098483  1
  I  I47  1  0.81901264  0.44529793  0.87121047  1
