# generated using pymatgen
data_H5C2I3N2
_symmetry_space_group_name_H-M   'P 1'
_cell_length_a   8.18215672
_cell_length_b   11.21513011
_cell_length_c   8.68401534
_cell_angle_alpha   95.78199893
_cell_angle_beta   89.98344554
_cell_angle_gamma   90.02899791
_symmetry_Int_Tables_number   1
_chemical_formula_structural   H5C2I3N2
_chemical_formula_sum   'H20 C8 I12 N8'
_cell_volume   792.82524666
_cell_formula_units_Z   4
loop_
 _symmetry_equiv_pos_site_id
 _symmetry_equiv_pos_as_xyz
  1  'x, y, z'
loop_
 _atom_site_type_symbol
 _atom_site_label
 _atom_site_symmetry_multiplicity
 _atom_site_fract_x
 _atom_site_fract_y
 _atom_site_fract_z
 _atom_site_occupancy
  C  C0  1  0.52399335  0.28677151  0.52152963  1
  C  C1  1  0.02357567  0.21325684  0.97862774  1
  C  C2  1  0.52440587  0.78559833  0.51970264  1
  C  C3  1  0.02451008  0.71468918  0.98031938  1
  N  N4  1  0.58035660  0.21807520  0.62314155  1
  N  N5  1  0.41493423  0.25438793  0.41527699  1
  N  N6  1  0.08049725  0.28180765  0.87702654  1
  N  N7  1  0.91431964  0.24581914  0.08463835  1
  N  N8  1  0.58031150  0.71693729  0.62159227  1
  N  N9  1  0.41544354  0.75326633  0.41335897  1
  N  N10  1  0.08083154  0.78350025  0.87871473  1
  N  N11  1  0.91511991  0.74684348  0.08634304  1
  H  H12  1  0.57376906  0.37724869  0.52501173  1
  H  H13  1  0.65927797  0.25412062  0.70618477  1
  H  H14  1  0.53437882  0.13459495  0.63373015  1
  H  H15  1  0.37775491  0.31444425  0.34092294  1
  H  H16  1  0.36285322  0.17086825  0.40138938  1
  H  H17  1  0.07303352  0.12273608  0.97536598  1
  H  H18  1  0.15946791  0.24559302  0.79413212  1
  H  H19  1  0.03496646  0.36535523  0.86628311  1
  H  H20  1  0.87679488  0.18587494  0.15905596  1
  H  H21  1  0.86250250  0.32939604  0.09836175  1
  H  H22  1  0.57453873  0.87595885  0.52297273  1
  H  H23  1  0.65903156  0.75296496  0.70481450  1
  H  H24  1  0.53384312  0.63363923  0.63240891  1
  H  H25  1  0.37891865  0.81316655  0.33855725  1
  H  H26  1  0.36336782  0.66971983  0.39924781  1
  H  H27  1  0.07466338  0.62437516  0.97709544  1
  H  H28  1  0.15989290  0.74765632  0.79570113  1
  H  H29  1  0.03443125  0.86677989  0.86788294  1
  H  H30  1  0.87831460  0.68686432  0.16098443  1
  H  H31  1  0.86305428  0.83035823  0.10042744  1
  C  C32  1  0.55092517  0.01933102  0.03066310  1
  C  C33  1  0.05082508  0.48020871  0.46930961  1
  C  C34  1  0.05199069  0.98085333  0.46891997  1
  C  C35  1  0.55207081  0.51867327  0.03088159  1
  I  I36  1  0.47886275  0.21130732  0.01769570  1
  I  I37  1  0.20034303  0.98410587  0.24584642  1
  I  I38  1  0.69966747  0.01570443  0.25351200  1
  I  I39  1  0.97909839  0.28811867  0.48222617  1
  I  I40  1  0.24204836  0.01540292  0.66515345  1
  I  I41  1  0.74046285  0.98423052  0.83386529  1
  I  I42  1  0.47907813  0.71041836  0.01682184  1
  I  I43  1  0.70029456  0.51568981  0.25404920  1
  I  I44  1  0.19967593  0.48412255  0.24651448  1
  I  I45  1  0.97909602  0.78907477  0.48303860  1
  I  I46  1  0.24019041  0.51568078  0.66613078  1
  I  I47  1  0.74223496  0.48447211  0.83467425  1
