# generated using pymatgen
data_H5C(IN)3
_symmetry_space_group_name_H-M   'P 1'
_cell_length_a   8.91316056
_cell_length_b   9.57043931
_cell_length_c   9.04268134
_cell_angle_alpha   89.29605452
_cell_angle_beta   90.03439952
_cell_angle_gamma   89.90505114
_symmetry_Int_Tables_number   1
_chemical_formula_structural   H5C(IN)3
_chemical_formula_sum   'H20 C4 I12 N12'
_cell_volume   771.30717424
_cell_formula_units_Z   4
loop_
 _symmetry_equiv_pos_site_id
 _symmetry_equiv_pos_as_xyz
  1  'x, y, z'
loop_
 _atom_site_type_symbol
 _atom_site_label
 _atom_site_symmetry_multiplicity
 _atom_site_fract_x
 _atom_site_fract_y
 _atom_site_fract_z
 _atom_site_occupancy
  C  C0  1  0.49945634  0.23815555  0.50108476  1
  C  C1  1  0.00236577  0.26242059  0.99845893  1
  C  C2  1  0.48286519  0.78694149  0.51929327  1
  C  C3  1  0.98105992  0.71319104  0.97998959  1
  N  N4  1  0.55322730  0.13673853  0.58516493  1
  N  N5  1  0.39975204  0.22261546  0.39729301  1
  N  N6  1  0.05213421  0.36545475  0.91449208  1
  N  N7  1  0.90120875  0.27473229  0.10134819  1
  N  N8  1  0.61773653  0.75927439  0.57173358  1
  N  N9  1  0.44025868  0.76235821  0.38350790  1
  N  N10  1  0.11616322  0.74108992  0.92879494  1
  N  N11  1  0.93789878  0.73542573  0.11609437  1
  H  H12  1  0.54269808  0.34299431  0.52001679  1
  H  H13  1  0.63517897  0.15708646  0.66097595  1
  H  H14  1  0.52481798  0.03529875  0.57076611  1
  H  H15  1  0.36062443  0.30999772  0.34270000  1
  H  H16  1  0.35364434  0.12878788  0.36535950  1
  H  H17  1  0.05070155  0.15916686  0.98055407  1
  H  H18  1  0.13539160  0.34823644  0.83915354  1
  H  H19  1  0.01707218  0.46541916  0.92702849  1
  H  H20  1  0.86574644  0.18633855  0.15626676  1
  H  H21  1  0.85121592  0.36708914  0.13279629  1
  H  H22  1  0.40158776  0.83745854  0.59238747  1
  H  H23  1  0.63684440  0.76882456  0.68277692  1
  H  H24  1  0.69302650  0.70166663  0.51093765  1
  H  H25  1  0.34222821  0.80445057  0.34250412  1
  H  H26  1  0.50834344  0.70890537  0.31222736  1
  H  H27  1  0.89991222  0.66452303  0.90546857  1
  H  H28  1  0.13540325  0.73358175  0.81758552  1
  H  H29  1  0.19098815  0.79789232  0.99092796  1
  H  H30  1  0.83946420  0.69343834  0.15559992  1
  H  H31  1  0.00573940  0.78707659  0.18893487  1
  N  N32  1  0.61309043  0.95176151  0.99564228  1
  N  N33  1  0.11271612  0.54922503  0.50551333  1
  N  N34  1  0.99578695  0.01824007  0.63385813  1
  N  N35  1  0.49550179  0.48309019  0.86718025  1
  I  I36  1  0.43650307  0.30591504  0.00186168  1
  I  I37  1  0.22103891  0.99599592  0.17802180  1
  I  I38  1  0.69112289  0.98989297  0.21397424  1
  I  I39  1  0.93603230  0.19570543  0.49937099  1
  I  I40  1  0.20896203  0.05855667  0.72977333  1
  I  I41  1  0.80292321  0.98745353  0.83473673  1
  I  I42  1  0.54421619  0.73047305  0.96868412  1
  I  I43  1  0.72276450  0.50064940  0.32343807  1
  I  I44  1  0.19068195  0.51034510  0.28736274  1
  I  I45  1  0.04352979  0.77063741  0.53208130  1
  I  I46  1  0.30262839  0.51418924  0.66653523  1
  I  I47  1  0.70776511  0.44130149  0.76984714  1
