# generated using pymatgen
data_GaH12C2(I2N)3
_symmetry_space_group_name_H-M   'P 1'
_cell_length_a   9.50548855
_cell_length_b   10.21409344
_cell_length_c   8.75725332
_cell_angle_alpha   97.80181047
_cell_angle_beta   90.14394582
_cell_angle_gamma   90.12221883
_symmetry_Int_Tables_number   1
_chemical_formula_structural   GaH12C2(I2N)3
_chemical_formula_sum   'Ga2 H24 C4 I12 N6'
_cell_volume   842.36577209
_cell_formula_units_Z   2
loop_
 _symmetry_equiv_pos_site_id
 _symmetry_equiv_pos_as_xyz
  1  'x, y, z'
loop_
 _atom_site_type_symbol
 _atom_site_label
 _atom_site_symmetry_multiplicity
 _atom_site_fract_x
 _atom_site_fract_y
 _atom_site_fract_z
 _atom_site_occupancy
  C  C0  1  0.50841082  0.26338190  0.48387503  1
  C  C1  1  0.94954742  0.20543694  0.00900435  1
  C  C2  1  0.55224800  0.70642243  0.50918236  1
  C  C3  1  0.98804723  0.76306074  0.98459055  1
  N  N4  1  0.44999467  0.31936464  0.63655113  1
  N  N5  1  0.01509780  0.21059811  0.85845858  1
  N  N6  1  0.48787658  0.71142366  0.35771139  1
  N  N7  1  0.04595848  0.81927803  0.13786750  1
  H  H8  1  0.62041390  0.24264477  0.49787637  1
  H  H9  1  0.45156211  0.17209007  0.44222601  1
  H  H10  1  0.49239677  0.33542803  0.40299263  1
  H  H11  1  0.43035535  0.24591559  0.70464200  1
  H  H12  1  0.52163767  0.38468964  0.69589787  1
  H  H13  1  0.35682695  0.37191782  0.62591789  1
  H  H14  1  0.03080343  0.21042129  0.09855444  1
  H  H15  1  0.89224381  0.11187015  0.00830771  1
  H  H16  1  0.87479698  0.28667518  0.04289862  1
  H  H17  1  0.05116701  0.05193636  0.75655683  1
  H  H18  1  0.09851180  0.27491673  0.86960839  1
  H  H19  1  0.94570786  0.24716306  0.78512293  1
  H  H20  1  0.47013569  0.70890523  0.59705279  1
  H  H21  1  0.61116362  0.61395697  0.50852849  1
  H  H22  1  0.62523741  0.78908189  0.54542874  1
  H  H23  1  0.40449873  0.77543026  0.36763525  1
  H  H24  1  0.45138090  0.55261054  0.25469973  1
  H  H25  1  0.55786401  0.74819859  0.28538271  1
  H  H26  1  0.87578927  0.74247609  0.99713867  1
  H  H27  1  0.00524925  0.83490784  0.90373874  1
  H  H28  1  0.04446501  0.67166096  0.94382829  1
  H  H29  1  0.97504018  0.88592464  0.19541719  1
  H  H30  1  0.06302140  0.74619460  0.20716348  1
  H  H31  1  0.14038519  0.87038044  0.12810735  1
  N  N32  1  0.08592342  0.95141876  0.72746034  1
  N  N33  1  0.41533929  0.45233089  0.22622921  1
  Ga  Ga34  1  0.53336492  0.95662198  0.02111791  1
  Ga  Ga35  1  0.96860787  0.45609885  0.52097026  1
  I  I36  1  0.54118205  0.35727260  0.04809833  1
  I  I37  1  0.30453316  0.06503514  0.13794664  1
  I  I38  1  0.71519528  0.98721320  0.24548741  1
  I  I39  1  0.02631229  0.21146378  0.44566749  1
  I  I40  1  0.29588201  0.98026605  0.66791681  1
  I  I41  1  0.64345870  0.05445049  0.78619872  1
  I  I42  1  0.48247085  0.71062516  0.94482210  1
  I  I43  1  0.85676734  0.55115077  0.28494122  1
  I  I44  1  0.20505889  0.48187287  0.16804103  1
  I  I45  1  0.95670987  0.85870890  0.54995859  1
  I  I46  1  0.19545891  0.56879931  0.64017522  1
  I  I47  1  0.78592359  0.48238635  0.74330131  1
