# generated using pymatgen
data_MgH5CI3N2
_symmetry_space_group_name_H-M   'P 1'
_cell_length_a   8.40512955
_cell_length_b   11.47357295
_cell_length_c   8.40299810
_cell_angle_alpha   90.00004263
_cell_angle_beta   90.00008686
_cell_angle_gamma   90.00055428
_symmetry_Int_Tables_number   1
_chemical_formula_structural   MgH5CI3N2
_chemical_formula_sum   'Mg4 H20 C4 I12 N8'
_cell_volume   810.35881040
_cell_formula_units_Z   4
loop_
 _symmetry_equiv_pos_site_id
 _symmetry_equiv_pos_as_xyz
  1  'x, y, z'
loop_
 _atom_site_type_symbol
 _atom_site_label
 _atom_site_symmetry_multiplicity
 _atom_site_fract_x
 _atom_site_fract_y
 _atom_site_fract_z
 _atom_site_occupancy
  C  C0  1  0.49711749  0.28659752  0.49759769  1
  C  C1  1  0.99710521  0.21353783  0.00242646  1
  C  C2  1  0.50291392  0.78646581  0.50243776  1
  C  C3  1  0.00286287  0.71340844  0.99762002  1
  N  N4  1  0.59683379  0.23567615  0.59505498  1
  N  N5  1  0.40141395  0.23250647  0.39931257  1
  N  N6  1  0.09687675  0.26445846  0.90495956  1
  N  N7  1  0.90145499  0.26761683  0.10071774  1
  N  N8  1  0.59859131  0.73238614  0.60071941  1
  N  N9  1  0.40316028  0.73554556  0.40497650  1
  N  N10  1  0.09853900  0.76749158  0.89932299  1
  N  N11  1  0.90313108  0.76433519  0.09507424  1
  H  H12  1  0.49322127  0.38147849  0.49841307  1
  H  H13  1  0.66661404  0.28596017  0.66720345  1
  H  H14  1  0.60920081  0.14729161  0.60355982  1
  H  H15  1  0.32814217  0.28059975  0.32795089  1
  H  H16  1  0.39569572  0.14386633  0.38934326  1
  H  H17  1  0.99317084  0.11864928  0.00154185  1
  H  H18  1  0.16659307  0.21417115  0.83281381  1
  H  H19  1  0.10928021  0.35282364  0.89651268  1
  H  H20  1  0.82812973  0.21952616  0.17206866  1
  H  H21  1  0.89576621  0.35626471  0.11075946  1
  H  H22  1  0.50682992  0.88135445  0.50158274  1
  H  H23  1  0.67190460  0.78047963  0.67206781  1
  H  H24  1  0.60430249  0.64374128  0.61073432  1
  H  H25  1  0.33341729  0.78583232  0.33283454  1
  H  H26  1  0.39076889  0.64717606  0.39650294  1
  H  H27  1  0.00678001  0.61852572  0.99847202  1
  H  H28  1  0.17182827  0.71939871  0.82796125  1
  H  H29  1  0.10423242  0.85613579  0.88931171  1
  H  H30  1  0.83337467  0.71405289  0.16723072  1
  H  H31  1  0.89075130  0.85271236  0.10354476  1
  Mg  Mg32  1  0.49985927  0.00009114  0.99633397  1
  Mg  Mg33  1  0.99974187  0.49990210  0.50335503  1
  Mg  Mg34  1  0.00013386  0.99990669  0.49632364  1
  Mg  Mg35  1  0.50026694  0.50009916  0.00333984  1
  I  I36  1  0.49983855  0.25012541  0.99788373  1
  I  I37  1  0.21436171  0.98787141  0.21349241  1
  I  I38  1  0.71541249  0.01223024  0.28261824  1
  I  I39  1  0.99984391  0.24988333  0.50217014  1
  I  I40  1  0.28562106  0.01212153  0.71349845  1
  I  I41  1  0.78457793  0.98777391  0.78261210  1
  I  I42  1  0.50013303  0.75011775  0.00216824  1
  I  I43  1  0.71434055  0.51216501  0.28651048  1
  I  I44  1  0.21545942  0.48777675  0.21737666  1
  I  I45  1  0.00019954  0.74987005  0.49790202  1
  I  I46  1  0.28455386  0.51222374  0.71737575  1
  I  I47  1  0.78567077  0.48783827  0.78651435  1
