# generated using pymatgen
data_AlH5CI3N2
_symmetry_space_group_name_H-M   'P 1'
_cell_length_a   8.64965358
_cell_length_b   10.87549249
_cell_length_c   9.44305052
_cell_angle_alpha   90.76969167
_cell_angle_beta   90.00114891
_cell_angle_gamma   90.00504519
_symmetry_Int_Tables_number   1
_chemical_formula_structural   AlH5CI3N2
_chemical_formula_sum   'Al4 H20 C4 I12 N8'
_cell_volume   888.22045442
_cell_formula_units_Z   4
loop_
 _symmetry_equiv_pos_site_id
 _symmetry_equiv_pos_as_xyz
  1  'x, y, z'
loop_
 _atom_site_type_symbol
 _atom_site_label
 _atom_site_symmetry_multiplicity
 _atom_site_fract_x
 _atom_site_fract_y
 _atom_site_fract_z
 _atom_site_occupancy
  C  C0  1  0.53511011  0.27436249  0.50398568  1
  C  C1  1  0.03517817  0.22567864  0.99610356  1
  C  C2  1  0.49447910  0.79449601  0.50941198  1
  C  C3  1  0.99428926  0.70550930  0.99067819  1
  N  N4  1  0.58187792  0.21930367  0.61892207  1
  N  N5  1  0.40999222  0.24491441  0.43227291  1
  N  N6  1  0.08184982  0.28078972  0.88117224  1
  N  N7  1  0.90999292  0.25496021  0.06780014  1
  N  N8  1  0.58417575  0.76057753  0.61372056  1
  N  N9  1  0.42057119  0.71964918  0.42251113  1
  N  N10  1  0.08385276  0.73938381  0.88624454  1
  N  N11  1  0.92015446  0.78040159  0.07734255  1
  H  H12  1  0.60692122  0.34881739  0.46356373  1
  H  H13  1  0.67906562  0.25049904  0.66902461  1
  H  H14  1  0.51963993  0.15046798  0.66542774  1
  H  H15  1  0.37856476  0.29462536  0.34599325  1
  H  H16  1  0.33555132  0.17808918  0.46529042  1
  H  H17  1  0.10711585  0.15131469  0.03654074  1
  H  H18  1  0.17914910  0.24977179  0.83112741  1
  H  H19  1  0.01949208  0.34954860  0.83465648  1
  H  H20  1  0.87864490  0.20520013  0.15406849  1
  H  H21  1  0.83544482  0.32170301  0.03479645  1
  H  H22  1  0.47990221  0.89273288  0.49253340  1
  H  H23  1  0.63782783  0.82621583  0.67557954  1
  H  H24  1  0.60350823  0.67046516  0.63823537  1
  H  H25  1  0.34926005  0.75530899  0.34743871  1
  H  H26  1  0.41880954  0.62670683  0.43577621  1
  H  H27  1  0.98009344  0.60728606  0.00790602  1
  H  H28  1  0.13768349  0.67373225  0.82455417  1
  H  H29  1  0.10282454  0.82948252  0.86144608  1
  H  H30  1  0.84896484  0.74476706  0.15253195  1
  H  H31  1  0.91797292  0.87329566  0.06367341  1
  Al  Al32  1  0.48404000  0.99766003  0.12209544  1
  Al  Al33  1  0.98418069  0.50231899  0.37787078  1
  Al  Al34  1  0.98926080  0.00150351  0.56003930  1
  Al  Al35  1  0.48927218  0.49850584  0.93989780  1
  I  I36  1  0.48448680  0.21637628  0.01265437  1
  I  I37  1  0.22110778  0.98623343  0.25694513  1
  I  I38  1  0.71768233  0.00606899  0.29468108  1
  I  I39  1  0.98465117  0.28361683  0.48731580  1
  I  I40  1  0.26871412  0.01154400  0.71291941  1
  I  I41  1  0.80914601  0.99827772  0.80401401  1
  I  I42  1  0.49123324  0.78472848  0.99741417  1
  I  I43  1  0.72121820  0.51366133  0.24301444  1
  I  I44  1  0.21784877  0.49399938  0.20531824  1
  I  I45  1  0.99125394  0.71525314  0.50254668  1
  I  I46  1  0.30917467  0.50183363  0.69598520  1
  I  I47  1  0.76878827  0.48842443  0.78706318  1
