# generated using pymatgen
data_SiH5CI3N2
_symmetry_space_group_name_H-M   'P 1'
_cell_length_a   8.30212992
_cell_length_b   11.87010762
_cell_length_c   8.82079681
_cell_angle_alpha   89.99586888
_cell_angle_beta   89.99943584
_cell_angle_gamma   90.00601472
_symmetry_Int_Tables_number   1
_chemical_formula_structural   SiH5CI3N2
_chemical_formula_sum   'Si4 H20 C4 I12 N8'
_cell_volume   869.26460579
_cell_formula_units_Z   4
loop_
 _symmetry_equiv_pos_site_id
 _symmetry_equiv_pos_as_xyz
  1  'x, y, z'
loop_
 _atom_site_type_symbol
 _atom_site_label
 _atom_site_symmetry_multiplicity
 _atom_site_fract_x
 _atom_site_fract_y
 _atom_site_fract_z
 _atom_site_occupancy
  C  C0  1  0.48993787  0.28730046  0.50715088  1
  C  C1  1  0.98985267  0.21303701  0.99289305  1
  C  C2  1  0.51011605  0.78695848  0.49284816  1
  C  C3  1  0.01000433  0.71270845  0.00720346  1
  N  N4  1  0.57727088  0.23897407  0.61255923  1
  N  N5  1  0.40182786  0.23443769  0.40644827  1
  N  N6  1  0.07726988  0.26131828  0.88749568  1
  N  N7  1  0.90176598  0.26596379  0.09353903  1
  N  N8  1  0.59821992  0.73408230  0.59353120  1
  N  N9  1  0.42277611  0.73862541  0.38744447  1
  N  N10  1  0.09817919  0.76551023  0.90648425  1
  N  N11  1  0.92268180  0.76109873  0.11256018  1
  H  H12  1  0.49034084  0.37917486  0.50280364  1
  H  H13  1  0.64319565  0.28838700  0.68435756  1
  H  H14  1  0.58693946  0.15362089  0.62511411  1
  H  H15  1  0.33723303  0.28071363  0.32998311  1
  H  H16  1  0.39097830  0.14878417  0.40170207  1
  H  H17  1  0.99015410  0.12116412  0.99727621  1
  H  H18  1  0.14317656  0.21189806  0.81573188  1
  H  H19  1  0.08703592  0.34667417  0.87493823  1
  H  H20  1  0.83708388  0.21974738  0.17002589  1
  H  H21  1  0.89100657  0.35161954  0.09824020  1
  H  H22  1  0.50972466  0.87883280  0.49720100  1
  H  H23  1  0.66283204  0.78032846  0.67002001  1
  H  H24  1  0.60904184  0.64842694  0.59826904  1
  H  H25  1  0.35685020  0.78802331  0.31563644  1
  H  H26  1  0.41309268  0.65327350  0.37489812  1
  H  H27  1  0.00952430  0.62083376  0.00292492  1
  H  H28  1  0.16276853  0.71918437  0.83005896  1
  H  H29  1  0.10909936  0.85115485  0.90168071  1
  H  H30  1  0.85671138  0.71173987  0.18437743  1
  H  H31  1  0.91307244  0.84646465  0.12504416  1
  Si  Si32  1  0.49563492  0.01869845  0.03621845  1
  Si  Si33  1  0.99567261  0.48129494  0.46377502  1
  Si  Si34  1  0.00439440  0.98128688  0.53621625  1
  Si  Si35  1  0.50438224  0.51871916  0.96377634  1
  I  I36  1  0.48465417  0.23820389  0.01105159  1
  I  I37  1  0.22831917  0.98896471  0.20629698  1
  I  I38  1  0.71284217  0.01301845  0.26464357  1
  I  I39  1  0.98465993  0.26180589  0.48891927  1
  I  I40  1  0.27170572  0.01101496  0.70630278  1
  I  I41  1  0.78719034  0.98698637  0.76464461  1
  I  I42  1  0.51534148  0.73821558  0.98884794  1
  I  I43  1  0.72833190  0.51103782  0.29367199  1
  I  I44  1  0.21283974  0.48698746  0.23526410  1
  I  I45  1  0.01534899  0.76178289  0.51108726  1
  I  I46  1  0.28721656  0.51300122  0.73527190  1
  I  I47  1  0.77172070  0.48898311  0.79367518  1
