# generated using pymatgen
data_CaH5CI3N2
_symmetry_space_group_name_H-M   'P 1'
_cell_length_a   8.65228123
_cell_length_b   12.09588058
_cell_length_c   8.63881569
_cell_angle_alpha   90.00077478
_cell_angle_beta   89.99991007
_cell_angle_gamma   89.99619899
_symmetry_Int_Tables_number   1
_chemical_formula_structural   CaH5CI3N2
_chemical_formula_sum   'Ca4 H20 C4 I12 N8'
_cell_volume   904.11219026
_cell_formula_units_Z   4
loop_
 _symmetry_equiv_pos_site_id
 _symmetry_equiv_pos_as_xyz
  1  'x, y, z'
loop_
 _atom_site_type_symbol
 _atom_site_label
 _atom_site_symmetry_multiplicity
 _atom_site_fract_x
 _atom_site_fract_y
 _atom_site_fract_z
 _atom_site_occupancy
  C  C0  1  0.49471176  0.28584769  0.49672964  1
  C  C1  1  0.99470487  0.21450486  0.00324012  1
  C  C2  1  0.50533581  0.78549746  0.50325088  1
  C  C3  1  0.00525261  0.71415865  0.99674080  1
  N  N4  1  0.59238350  0.23741271  0.59108822  1
  N  N5  1  0.40134141  0.23485228  0.40075717  1
  N  N6  1  0.09240815  0.26294840  0.90893924  1
  N  N7  1  0.90136362  0.26549540  0.09925975  1
  N  N8  1  0.59867950  0.73450891  0.59926612  1
  N  N9  1  0.40764592  0.73705068  0.40893566  1
  N  N10  1  0.09861619  0.76515291  0.90076716  1
  N  N11  1  0.90756397  0.76258979  0.09108559  1
  H  H12  1  0.49061029  0.37600316  0.49833577  1
  H  H13  1  0.66028833  0.28470747  0.66143496  1
  H  H14  1  0.60465095  0.15361364  0.59802927  1
  H  H15  1  0.32976353  0.28056840  0.33196069  1
  H  H16  1  0.39619483  0.15083345  0.39057310  1
  H  H17  1  0.99053730  0.12434885  0.00153952  1
  H  H18  1  0.16028782  0.21567409  0.83854422  1
  H  H19  1  0.10474319  0.34674480  0.90207960  1
  H  H20  1  0.82974304  0.21979249  0.16801337  1
  H  H21  1  0.89627149  0.34951194  0.10953409  1
  H  H22  1  0.50948975  0.87565326  0.50156812  1
  H  H23  1  0.67028803  0.78020923  0.66803098  1
  H  H24  1  0.60378706  0.65048735  0.60952176  1
  H  H25  1  0.33976245  0.78432611  0.33854038  1
  H  H26  1  0.39533044  0.65325647  0.40205535  1
  H  H27  1  0.00937094  0.62400369  0.99836634  1
  H  H28  1  0.17020903  0.71943814  0.83198063  1
  H  H29  1  0.10374164  0.84917014  0.89056525  1
  H  H30  1  0.83966286  0.71530063  0.16143172  1
  H  H31  1  0.89527227  0.84639430  0.09800495  1
  Ca  Ca32  1  0.49964023  0.99997767  0.99709250  1
  Ca  Ca33  1  0.99963793  0.50002326  0.50289970  1
  Ca  Ca34  1  0.00036155  0.00002248  0.49708710  1
  Ca  Ca35  1  0.50036598  0.49997729  0.00289579  1
  I  I36  1  0.49840483  0.25000336  0.99670815  1
  I  I37  1  0.20760474  0.98728066  0.20485310  1
  I  I38  1  0.70794603  0.01454163  0.28960792  1
  I  I39  1  0.99840207  0.25001082  0.50328980  1
  I  I40  1  0.29239653  0.01271980  0.70485391  1
  I  I41  1  0.79205558  0.98545759  0.78960934  1
  I  I42  1  0.50156283  0.74998900  0.00326920  1
  I  I43  1  0.70774623  0.51279679  0.29496665  1
  I  I44  1  0.20811153  0.48551596  0.21056595  1
  I  I45  1  0.00162605  0.74999714  0.49670215  1
  I  I46  1  0.29188930  0.51448124  0.71056747  1
  I  I47  1  0.79225537  0.48721094  0.79496559  1
