# generated using pymatgen
data_ZnH5CI3N2
_symmetry_space_group_name_H-M   'P 1'
_cell_length_a   7.17551982
_cell_length_b   14.43017761
_cell_length_c   8.77927469
_cell_angle_alpha   90.01439023
_cell_angle_beta   89.98539372
_cell_angle_gamma   90.00809125
_symmetry_Int_Tables_number   1
_chemical_formula_structural   ZnH5CI3N2
_chemical_formula_sum   'Zn4 H20 C4 I12 N8'
_cell_volume   909.04137429
_cell_formula_units_Z   4
loop_
 _symmetry_equiv_pos_site_id
 _symmetry_equiv_pos_as_xyz
  1  'x, y, z'
loop_
 _atom_site_type_symbol
 _atom_site_label
 _atom_site_symmetry_multiplicity
 _atom_site_fract_x
 _atom_site_fract_y
 _atom_site_fract_z
 _atom_site_occupancy
  C  C0  1  0.45496451  0.32693404  0.48559087  1
  C  C1  1  0.95550861  0.17307685  0.01437848  1
  C  C2  1  0.54515610  0.82705121  0.51441196  1
  C  C3  1  0.04497215  0.67293383  0.98564175  1
  N  N4  1  0.47409423  0.31696158  0.63305383  1
  N  N5  1  0.46228777  0.25946147  0.38567191  1
  N  N6  1  0.97419727  0.18321354  0.86690041  1
  N  N7  1  0.96199958  0.24052762  0.11436837  1
  N  N8  1  0.53770678  0.75969956  0.61447145  1
  N  N9  1  0.52574254  0.81693345  0.36699434  1
  N  N10  1  0.03761952  0.74025285  0.88553015  1
  N  N11  1  0.02539225  0.68309551  0.13304546  1
  H  H12  1  0.43276172  0.39718647  0.44263425  1
  H  H13  1  0.47124604  0.37440240  0.70092997  1
  H  H14  1  0.49400002  0.25471571  0.68626466  1
  H  H15  1  0.44124155  0.27294742  0.27262178  1
  H  H16  1  0.48074628  0.19180069  0.41674122  1
  H  H17  1  0.93438353  0.10272031  0.05726154  1
  H  H18  1  0.97219216  0.12580980  0.79891290  1
  H  H19  1  0.99318508  0.24556541  0.81378794  1
  H  H20  1  0.94130758  0.22691829  0.22743138  1
  H  H21  1  0.97939828  0.30826750  0.08332627  1
  H  H22  1  0.56770494  0.89732886  0.55718845  1
  H  H23  1  0.55905858  0.77330351  0.72746727  1
  H  H24  1  0.51884918  0.69201654  0.58360823  1
  H  H25  1  0.52866398  0.87430761  0.29898907  1
  H  H26  1  0.50549608  0.75465857  0.31392324  1
  H  H27  1  0.06757275  0.60264749  0.94293578  1
  H  H28  1  0.05907603  0.72661753  0.77254813  1
  H  H29  1  0.01867487  0.80794219  0.91632092  1
  H  H30  1  0.02826443  0.62574415  0.20110730  1
  H  H31  1  0.00513809  0.74538530  0.18606028  1
  Zn  Zn32  1  0.46931256  0.03085446  0.95785086  1
  Zn  Zn33  1  0.96896983  0.46912135  0.54206598  1
  Zn  Zn34  1  0.03153688  0.96910318  0.45725149  1
  Zn  Zn35  1  0.53132710  0.53085792  0.04292219  1
  I  I36  1  0.46588278  0.20611917  0.98713695  1
  I  I37  1  0.22352579  0.94432203  0.11349580  1
  I  I38  1  0.74715675  0.04672087  0.34008549  1
  I  I39  1  0.96569138  0.29384841  0.51282806  1
  I  I40  1  0.27679301  0.05557778  0.61347535  1
  I  I41  1  0.75342477  0.95320879  0.84028869  1
  I  I42  1  0.53403339  0.70609612  0.01293269  1
  I  I43  1  0.72316878  0.55557253  0.38646376  1
  I  I44  1  0.24671665  0.45321320  0.15980637  1
  I  I45  1  0.03425187  0.79385450  0.48710435  1
  I  I46  1  0.25304671  0.54676350  0.65966984  1
  I  I47  1  0.77657859  0.44440191  0.88660734  1
