# generated using pymatgen
data_GaH5CI3N2
_symmetry_space_group_name_H-M   'P 1'
_cell_length_a   9.07957795
_cell_length_b   10.54387537
_cell_length_c   9.39666341
_cell_angle_alpha   90.02201343
_cell_angle_beta   90.02838680
_cell_angle_gamma   89.28128926
_symmetry_Int_Tables_number   1
_chemical_formula_structural   GaH5CI3N2
_chemical_formula_sum   'Ga4 H20 C4 I12 N8'
_cell_volume   899.50864827
_cell_formula_units_Z   4
loop_
 _symmetry_equiv_pos_site_id
 _symmetry_equiv_pos_as_xyz
  1  'x, y, z'
loop_
 _atom_site_type_symbol
 _atom_site_label
 _atom_site_symmetry_multiplicity
 _atom_site_fract_x
 _atom_site_fract_y
 _atom_site_fract_z
 _atom_site_occupancy
  C  C0  1  0.49624117  0.30053686  0.48895270  1
  C  C1  1  0.02690610  0.25453513  0.04026537  1
  C  C2  1  0.47246403  0.74492020  0.54054298  1
  C  C3  1  0.00426752  0.69960133  0.98824056  1
  N  N4  1  0.58949101  0.24250772  0.57445449  1
  N  N5  1  0.40258703  0.24467575  0.40357969  1
  N  N6  1  0.08385551  0.27587546  0.91426651  1
  N  N7  1  0.88630261  0.26752639  0.07032566  1
  N  N8  1  0.61344991  0.73395486  0.56981462  1
  N  N9  1  0.41513472  0.72337779  0.41468434  1
  N  N10  1  0.09835221  0.75617304  0.90409169  1
  N  N11  1  0.91104720  0.75683546  0.07443395  1
  H  H12  1  0.49658490  0.40394614  0.48852129  1
  H  H13  1  0.65759818  0.29634605  0.63730471  1
  H  H14  1  0.59902700  0.14625932  0.58013465  1
  H  H15  1  0.33431177  0.30096672  0.34213384  1
  H  H16  1  0.39121882  0.14862695  0.39960335  1
  H  H17  1  0.10020206  0.22040342  0.12426046  1
  H  H18  1  0.19518277  0.27047237  0.90056617  1
  H  H19  1  0.02238101  0.31759607  0.83506770  1
  H  H20  1  0.85055371  0.25239783  0.17157980  1
  H  H21  1  0.81323179  0.30495946  0.99802897  1
  H  H22  1  0.39900766  0.77731287  0.62521469  1
  H  H23  1  0.64960787  0.74949968  0.67091092  1
  H  H24  1  0.68697075  0.69859930  0.49673282  1
  H  H25  1  0.30362698  0.72723238  0.40161522  1
  H  H26  1  0.47686232  0.68281502  0.33494000  1
  H  H27  1  0.00333504  0.59622644  0.98590896  1
  H  H28  1  0.16651413  0.70030637  0.84208631  1
  H  H29  1  0.11050147  0.85218896  0.90194004  1
  H  H30  1  0.84262909  0.70244226  0.13625975  1
  H  H31  1  0.90204115  0.85301047  0.08189725  1
  Ga  Ga32  1  0.47991221  0.98928084  0.09472154  1
  Ga  Ga33  1  0.01136986  0.49943190  0.53385430  1
  Ga  Ga34  1  0.02160794  0.01048305  0.59449260  1
  Ga  Ga35  1  0.48520975  0.50044115  0.03360162  1
  I  I36  1  0.49962830  0.21168058  0.97708203  1
  I  I37  1  0.21805808  0.97145538  0.19672727  1
  I  I38  1  0.67384133  0.98141467  0.29489515  1
  I  I39  1  0.98212364  0.21569025  0.44496969  1
  I  I40  1  0.28334485  0.02800717  0.69689183  1
  I  I41  1  0.82686395  0.01796695  0.79375986  1
  I  I42  1  0.51968024  0.78414715  0.94506658  1
  I  I43  1  0.71209554  0.52448740  0.27019606  1
  I  I44  1  0.22302141  0.49693914  0.21905195  1
  I  I45  1  0.00123034  0.78806957  0.47657328  1
  I  I46  1  0.27448838  0.50267419  0.71892094  1
  I  I47  1  0.78605602  0.47576553  0.77094061  1
