# generated using pymatgen
data_GeH5CI3N2
_symmetry_space_group_name_H-M   'P 1'
_cell_length_a   8.53877505
_cell_length_b   11.85414991
_cell_length_c   8.53774380
_cell_angle_alpha   90.39727984
_cell_angle_beta   89.20071287
_cell_angle_gamma   90.38224363
_symmetry_Int_Tables_number   1
_chemical_formula_structural   GeH5CI3N2
_chemical_formula_sum   'Ge4 H20 C4 I12 N8'
_cell_volume   864.06619987
_cell_formula_units_Z   4
loop_
 _symmetry_equiv_pos_site_id
 _symmetry_equiv_pos_as_xyz
  1  'x, y, z'
loop_
 _atom_site_type_symbol
 _atom_site_label
 _atom_site_symmetry_multiplicity
 _atom_site_fract_x
 _atom_site_fract_y
 _atom_site_fract_z
 _atom_site_occupancy
  C  C0  1  0.49403675  0.28498574  0.50146601  1
  C  C1  1  0.99606941  0.21259265  0.00573518  1
  C  C2  1  0.50765501  0.78513967  0.50010359  1
  C  C3  1  0.00710185  0.71213109  0.99760055  1
  N  N4  1  0.59112131  0.23622764  0.59706258  1
  N  N5  1  0.39927623  0.23246097  0.40557288  1
  N  N6  1  0.09611866  0.26215998  0.91031540  1
  N  N7  1  0.90100018  0.26442899  0.10378820  1
  N  N8  1  0.60168017  0.73362541  0.59591507  1
  N  N9  1  0.41024570  0.73536278  0.40406315  1
  N  N10  1  0.10300650  0.76375690  0.90021247  1
  N  N11  1  0.90912433  0.76190976  0.09495229  1
  H  H12  1  0.49167965  0.37697881  0.50201913  1
  H  H13  1  0.66027571  0.28541906  0.66686153  1
  H  H14  1  0.60182160  0.15074938  0.60593091  1
  H  H15  1  0.32822310  0.27903478  0.33612455  1
  H  H16  1  0.39238692  0.14665173  0.39511061  1
  H  H17  1  0.99131578  0.12058960  0.00325453  1
  H  H18  1  0.16422797  0.21370948  0.83762640  1
  H  H19  1  0.11024206  0.34767039  0.90360039  1
  H  H20  1  0.82735654  0.21726423  0.17274573  1
  H  H21  1  0.89524570  0.35017730  0.11502911  1
  H  H22  1  0.51119225  0.87713063  0.50019356  1
  H  H23  1  0.67280233  0.78105105  0.66606509  1
  H  H24  1  0.60817733  0.64789135  0.60465345  1
  H  H25  1  0.34224793  0.78373647  0.33393531  1
  H  H26  1  0.39752604  0.64979119  0.39508970  1
  H  H27  1  0.00913842  0.62010277  0.99765102  1
  H  H28  1  0.17423003  0.71640332  0.82902639  1
  H  H29  1  0.11036595  0.84949472  0.89033959  1
  H  H30  1  0.83837578  0.71352094  0.16515528  1
  H  H31  1  0.89829631  0.84746708  0.10478264  1
  Ge  Ge32  1  0.47264523  0.01606762  0.98546392  1
  Ge  Ge33  1  0.98799242  0.51630369  0.47524703  1
  Ge  Ge34  1  0.97144290  0.01650306  0.49768163  1
  Ge  Ge35  1  0.50042249  0.51647243  0.97387356  1
  I  I36  1  0.49763176  0.24619465  0.00492098  1
  I  I37  1  0.22146081  0.98640587  0.20890938  1
  I  I38  1  0.72146711  0.01092053  0.28564903  1
  I  I39  1  0.99637589  0.24672177  0.50991139  1
  I  I40  1  0.28811965  0.01063719  0.71558541  1
  I  I41  1  0.78643593  0.98651367  0.77619467  1
  I  I42  1  0.50889908  0.74675770  0.00011435  1
  I  I43  1  0.71780368  0.51090075  0.29076943  1
  I  I44  1  0.21222689  0.48566346  0.22457553  1
  I  I45  1  0.00849939  0.74644906  0.49621161  1
  I  I46  1  0.28807928  0.51070362  0.72381952  1
  I  I47  1  0.77895332  0.48723205  0.78919500  1
