# generated using pymatgen
data_SrH5CI3N2
_symmetry_space_group_name_H-M   'P 1'
_cell_length_a   8.76969122
_cell_length_b   12.64839881
_cell_length_c   8.77496109
_cell_angle_alpha   89.99880825
_cell_angle_beta   89.99978510
_cell_angle_gamma   89.99465310
_symmetry_Int_Tables_number   1
_chemical_formula_structural   SrH5CI3N2
_chemical_formula_sum   'Sr4 H20 C4 I12 N8'
_cell_volume   973.34107272
_cell_formula_units_Z   4
loop_
 _symmetry_equiv_pos_site_id
 _symmetry_equiv_pos_as_xyz
  1  'x, y, z'
loop_
 _atom_site_type_symbol
 _atom_site_label
 _atom_site_symmetry_multiplicity
 _atom_site_fract_x
 _atom_site_fract_y
 _atom_site_fract_z
 _atom_site_occupancy
  C  C0  1  0.49169841  0.29028684  0.49586355  1
  C  C1  1  0.99168715  0.20993367  0.00409871  1
  C  C2  1  0.50839030  0.79006904  0.50412604  1
  C  C3  1  0.00823239  0.70971132  0.99588622  1
  N  N4  1  0.58849543  0.24325587  0.58778039  1
  N  N5  1  0.39971412  0.24177943  0.40072378  1
  N  N6  1  0.08851116  0.25696173  0.91226931  1
  N  N7  1  0.89969870  0.25844525  0.09928831  1
  N  N8  1  0.60033805  0.74155309  0.59930221  1
  N  N9  1  0.41155606  0.74303247  0.41224031  1
  N  N10  1  0.10024920  0.75822379  0.90074452  1
  N  N11  1  0.91143414  0.75673656  0.08775798  1
  H  H12  1  0.48722521  0.37648562  0.49898471  1
  H  H13  1  0.65610880  0.28732647  0.65782566  1
  H  H14  1  0.59985037  0.16298179  0.59168889  1
  H  H15  1  0.32809287  0.28520790  0.33369694  1
  H  H16  1  0.39639610  0.16142208  0.39075588  1
  H  H17  1  0.98713056  0.12374146  0.00090971  1
  H  H18  1  0.15611462  0.21291070  0.84221356  1
  H  H19  1  0.09994434  0.33722776  0.90846063  1
  H  H20  1  0.82802793  0.21502381  0.16627411  1
  H  H21  1  0.89644191  0.33881353  0.10934883  1
  H  H22  1  0.51291012  0.87625207  0.50091863  1
  H  H23  1  0.67198405  0.78497411  0.66629493  1
  H  H24  1  0.60361139  0.66119876  0.60935685  1
  H  H25  1  0.34397401  0.78708805  0.34215961  1
  H  H26  1  0.40015656  0.66275401  0.40841364  1
  H  H27  1  0.01272639  0.62351490  0.99900021  1
  H  H28  1  0.17189701  0.71478960  0.83372179  1
  H  H29  1  0.10356369  0.83858814  0.89076652  1
  H  H30  1  0.84380083  0.71267453  0.15777554  1
  H  H31  1  0.90005554  0.83701036  0.09164242  1
  Sr  Sr32  1  0.49962612  0.99998630  0.99675981  1
  Sr  Sr33  1  0.99964903  0.50003179  0.50325551  1
  Sr  Sr34  1  0.00037525  0.00002987  0.49675396  1
  Sr  Sr35  1  0.50035186  0.49998404  0.00325091  1
  I  I36  1  0.49671346  0.25005170  0.99282901  1
  I  I37  1  0.18725432  0.98089967  0.18429807  1
  I  I38  1  0.68723058  0.02488644  0.30934522  1
  I  I39  1  0.99672258  0.24997210  0.50715979  1
  I  I40  1  0.31274934  0.01910076  0.68429896  1
  I  I41  1  0.81276437  0.97512669  0.80934085  1
  I  I42  1  0.50324676  0.75004401  0.00715584  1
  I  I43  1  0.68744186  0.51907914  0.31550497  1
  I  I44  1  0.18733471  0.47517312  0.19076819  1
  I  I45  1  0.00331867  0.74996242  0.49281984  1
  I  I46  1  0.31266875  0.52483705  0.69076782  1
  I  I47  1  0.81255425  0.48092318  0.81550561  1
