# generated using pymatgen
data_CdH5CI3N2
_symmetry_space_group_name_H-M   'P 1'
_cell_length_a   8.96606364
_cell_length_b   11.32509307
_cell_length_c   8.70561626
_cell_angle_alpha   91.16853209
_cell_angle_beta   94.51864688
_cell_angle_gamma   90.63351171
_symmetry_Int_Tables_number   1
_chemical_formula_structural   CdH5CI3N2
_chemical_formula_sum   'Cd4 H20 C4 I12 N8'
_cell_volume   880.97935878
_cell_formula_units_Z   4
loop_
 _symmetry_equiv_pos_site_id
 _symmetry_equiv_pos_as_xyz
  1  'x, y, z'
loop_
 _atom_site_type_symbol
 _atom_site_label
 _atom_site_symmetry_multiplicity
 _atom_site_fract_x
 _atom_site_fract_y
 _atom_site_fract_z
 _atom_site_occupancy
  C  C0  1  0.50294851  0.29318122  0.50311049  1
  C  C1  1  0.01119648  0.20799608  0.99060559  1
  C  C2  1  0.51330899  0.76058541  0.47837262  1
  C  C3  1  0.01391880  0.72616221  0.01889802  1
  N  N4  1  0.61834915  0.24906115  0.58332169  1
  N  N5  1  0.41036590  0.23460937  0.40414561  1
  N  N6  1  0.10895192  0.26708607  0.91708062  1
  N  N7  1  0.91541112  0.25442457  0.08046464  1
  N  N8  1  0.58206426  0.71646524  0.60251254  1
  N  N9  1  0.36977840  0.74895154  0.43734705  1
  N  N10  1  0.08279690  0.76741288  0.90377511  1
  N  N11  1  0.89191869  0.77061936  0.07036452  1
  H  H12  1  0.48068082  0.38689732  0.52131538  1
  H  H13  1  0.68128153  0.30355857  0.65932980  1
  H  H14  1  0.64774614  0.16222210  0.57762826  1
  H  H15  1  0.32280707  0.27855349  0.34958064  1
  H  H16  1  0.41802335  0.14626760  0.38008467  1
  H  H17  1  0.00931519  0.11230138  0.97471353  1
  H  H18  1  0.17896956  0.22171516  0.85065467  1
  H  H19  1  0.12058648  0.35686903  0.92418060  1
  H  H20  1  0.84169850  0.20090307  0.13088011  1
  H  H21  1  0.90657671  0.34328257  0.10023207  1
  H  H22  1  0.58110222  0.81107641  0.40304731  1
  H  H23  1  0.69490142  0.72946809  0.62309002  1
  H  H24  1  0.52757038  0.67128031  0.68234930  1
  H  H25  1  0.32467363  0.79414535  0.34435034  1
  H  H26  1  0.29810771  0.70479952  0.50278297  1
  H  H27  1  0.06320996  0.65019241  0.07886862  1
  H  H28  1  0.17841229  0.72795379  0.87318850  1
  H  H29  1  0.04603330  0.83857384  0.84182084  1
  H  H30  1  0.84211146  0.72816801  0.15548017  1
  H  H31  1  0.83468153  0.83682107  0.01395085  1
  Cd  Cd32  1  0.53231046  0.01599268  0.95015859  1
  Cd  Cd33  1  0.97802445  0.48684923  0.56154410  1
  Cd  Cd34  1  0.99607129  0.99799421  0.38336929  1
  Cd  Cd35  1  0.47188693  0.50103477  0.11273629  1
  I  I36  1  0.50460190  0.27886077  0.97042813  1
  I  I37  1  0.22900085  0.98736559  0.19312658  1
  I  I38  1  0.68399191  0.02336421  0.26347324  1
  I  I39  1  0.01592240  0.22637355  0.51726935  1
  I  I40  1  0.29586850  0.99778607  0.72556605  1
  I  I41  1  0.78152493  0.98813122  0.77782464  1
  I  I42  1  0.49559482  0.73290984  0.01404902  1
  I  I43  1  0.75789800  0.49816999  0.29484660  1
  I  I44  1  0.19910337  0.47751817  0.24084256  1
  I  I45  1  0.97312092  0.77035990  0.49910015  1
  I  I46  1  0.26649269  0.51869784  0.71064190  1
  I  I47  1  0.79910759  0.49705073  0.80760112  1
