# generated using pymatgen
data_SnH5CI3N2
_symmetry_space_group_name_H-M   'P 1'
_cell_length_a   8.69285422
_cell_length_b   12.21988722
_cell_length_c   8.68981644
_cell_angle_alpha   89.99671603
_cell_angle_beta   89.99853526
_cell_angle_gamma   89.99901655
_symmetry_Int_Tables_number   1
_chemical_formula_structural   SnH5CI3N2
_chemical_formula_sum   'Sn4 H20 C4 I12 N8'
_cell_volume   923.08181714
_cell_formula_units_Z   4
loop_
 _symmetry_equiv_pos_site_id
 _symmetry_equiv_pos_as_xyz
  1  'x, y, z'
loop_
 _atom_site_type_symbol
 _atom_site_label
 _atom_site_symmetry_multiplicity
 _atom_site_fract_x
 _atom_site_fract_y
 _atom_site_fract_z
 _atom_site_occupancy
  C  C0  1  0.49344064  0.28704426  0.49622445  1
  C  C1  1  0.99344542  0.21316753  0.00377172  1
  C  C2  1  0.50663037  0.78683282  0.50378007  1
  C  C3  1  0.00650556  0.71295792  0.99621855  1
  N  N4  1  0.59046387  0.23877584  0.58996258  1
  N  N5  1  0.40033496  0.23698805  0.40040455  1
  N  N6  1  0.09052156  0.26143751  0.91006400  1
  N  N7  1  0.90035495  0.26320510  0.09960651  1
  N  N8  1  0.59968896  0.73679939  0.59959737  1
  N  N9  1  0.40955268  0.73855669  0.41002938  1
  N  N10  1  0.09961168  0.76300777  0.90041213  1
  N  N11  1  0.90945442  0.76122360  0.08994119  1
  H  H12  1  0.48961992  0.37628879  0.49821761  1
  H  H13  1  0.65815541  0.28535857  0.66012889  1
  H  H14  1  0.60243192  0.15579013  0.59655981  1
  H  H15  1  0.32928351  0.28266055  0.33227480  1
  H  H16  1  0.39483968  0.15383922  0.38977646  1
  H  H17  1  0.98957467  0.12391280  0.00171511  1
  H  H18  1  0.15819315  0.21486420  0.83990102  1
  H  H19  1  0.10255696  0.34441784  0.90352932  1
  H  H20  1  0.82927818  0.21753369  0.16769188  1
  H  H21  1  0.89489807  0.34635139  0.11029840  1
  H  H22  1  0.51048211  0.87608904  0.50172862  1
  H  H23  1  0.67075491  0.78246902  0.66770333  1
  H  H24  1  0.60516593  0.65366127  0.61028431  1
  H  H25  1  0.34189144  0.78513445  0.33985223  1
  H  H26  1  0.39754530  0.65556811  0.40347474  1
  H  H27  1  0.01033763  0.62371402  0.99822493  1
  H  H28  1  0.17068161  0.71733861  0.83229438  1
  H  H29  1  0.10509587  0.84616094  0.88976854  1
  H  H30  1  0.84175648  0.71464308  0.16008850  1
  H  H31  1  0.89746230  0.84421172  0.09651134  1
  Sn  Sn32  1  0.49930991  0.99998590  0.99793883  1
  Sn  Sn33  1  0.99931989  0.50002745  0.50210494  1
  Sn  Sn34  1  0.00068929  0.00002709  0.49793840  1
  Sn  Sn35  1  0.50067516  0.49998530  0.00209758  1
  I  I36  1  0.49718220  0.25000722  0.99606579  1
  I  I37  1  0.20698410  0.98604626  0.20431084  1
  I  I38  1  0.70749142  0.01561984  0.28984014  1
  I  I39  1  0.99716023  0.25000826  0.50395293  1
  I  I40  1  0.29302367  0.01395655  0.70430844  1
  I  I41  1  0.79251810  0.98438514  0.78984812  1
  I  I42  1  0.50279517  0.75000088  0.00392854  1
  I  I43  1  0.70706898  0.51396992  0.29561417  1
  I  I44  1  0.20754593  0.48440661  0.21023212  1
  I  I45  1  0.00287081  0.75000249  0.49603849  1
  I  I46  1  0.29244904  0.51559633  0.71023242  1
  I  I47  1  0.79292534  0.48603380  0.79561626  1
