# generated using pymatgen
data_ScH12C2(I2N)3
_symmetry_space_group_name_H-M   'P 1'
_cell_length_a   8.96439489
_cell_length_b   10.70439624
_cell_length_c   8.47049451
_cell_angle_alpha   96.27963634
_cell_angle_beta   90.01901361
_cell_angle_gamma   89.99827228
_symmetry_Int_Tables_number   1
_chemical_formula_structural   ScH12C2(I2N)3
_chemical_formula_sum   'Sc2 H24 C4 I12 N6'
_cell_volume   807.93837360
_cell_formula_units_Z   2
loop_
 _symmetry_equiv_pos_site_id
 _symmetry_equiv_pos_as_xyz
  1  'x, y, z'
loop_
 _atom_site_type_symbol
 _atom_site_label
 _atom_site_symmetry_multiplicity
 _atom_site_fract_x
 _atom_site_fract_y
 _atom_site_fract_z
 _atom_site_occupancy
  C  C0  1  0.51176119  0.27994654  0.43547396  1
  C  C1  1  0.94030931  0.22002881  0.02372146  1
  C  C2  1  0.55977356  0.72015485  0.52353550  1
  C  C3  1  0.98817126  0.77984808  0.93538700  1
  N  N4  1  0.54121165  0.28588970  0.60831672  1
  N  N5  1  0.05151762  0.20628155  0.89239640  1
  N  N6  1  0.44843276  0.70638479  0.39226256  1
  N  N7  1  0.95848914  0.78578733  0.10816304  1
  H  H8  1  0.61741526  0.26243655  0.37236168  1
  H  H9  1  0.43363243  0.20293350  0.40113045  1
  H  H10  1  0.46322807  0.36908006  0.40716631  1
  H  H11  1  0.57789576  0.20029450  0.64212128  1
  H  H12  1  0.62411341  0.35188215  0.64479597  1
  H  H13  1  0.44649276  0.31352539  0.67324238  1
  H  H14  1  0.98329228  0.28676766  0.12002395  1
  H  H15  1  0.92258635  0.12883235  0.06753281  1
  H  H16  1  0.83536429  0.25504261  0.97947711  1
  H  H17  1  0.15840196  0.20334778  0.93793925  1
  H  H18  1  0.04593459  0.28123233  0.82518894  1
  H  H19  1  0.03860132  0.12169738  0.81194335  1
  H  H20  1  0.51685025  0.78687119  0.61986830  1
  H  H21  1  0.57758629  0.62895538  0.56732491  1
  H  H22  1  0.66465107  0.75520282  0.47925202  1
  H  H23  1  0.45382390  0.78137117  0.32510498  1
  H  H24  1  0.34160592  0.70334011  0.43786263  1
  H  H25  1  0.46136041  0.62183144  0.31176725  1
  H  H26  1  0.88260413  0.76230961  0.87204202  1
  H  H27  1  0.03672977  0.86899007  0.90718032  1
  H  H28  1  0.06636208  0.70285739  0.90122279  1
  H  H29  1  0.87561329  0.85182390  0.14449931  1
  H  H30  1  0.92170220  0.70020265  0.14188023  1
  H  H31  1  0.05315451  0.81335795  0.17328551  1
  N  N32  1  0.09499651  0.97508761  0.71243194  1
  N  N33  1  0.40496458  0.47518259  0.21234099  1
  Sc  Sc34  1  0.49229235  0.96605856  0.00748294  1
  Sc  Sc35  1  0.00794642  0.46611318  0.50748330  1
  I  I36  1  0.47506693  0.33412126  0.03855214  1
  I  I37  1  0.23700460  0.01439273  0.18185486  1
  I  I38  1  0.68261630  0.99300817  0.26848965  1
  I  I39  1  0.99582396  0.21601227  0.47163875  1
  I  I40  1  0.32452952  0.00254000  0.70060414  1
  I  I41  1  0.69780846  0.02942672  0.77742377  1
  I  I42  1  0.50506252  0.71597746  0.97163686  1
  I  I43  1  0.80216759  0.52932522  0.27747850  1
  I  I44  1  0.17542084  0.50263593  0.20051864  1
  I  I45  1  0.02475467  0.83412509  0.53853844  1
  I  I46  1  0.26322208  0.51487610  0.68189393  1
  I  I47  1  0.81767761  0.49268783  0.76845733  1
