# generated using pymatgen
data_BaH5CI3N2
_symmetry_space_group_name_H-M   'P 1'
_cell_length_a   9.01393195
_cell_length_b   13.42329348
_cell_length_c   8.82103657
_cell_angle_alpha   89.99870011
_cell_angle_beta   89.98523796
_cell_angle_gamma   89.99932476
_symmetry_Int_Tables_number   1
_chemical_formula_structural   BaH5CI3N2
_chemical_formula_sum   'Ba4 H20 C4 I12 N8'
_cell_volume   1067.31587416
_cell_formula_units_Z   4
loop_
 _symmetry_equiv_pos_site_id
 _symmetry_equiv_pos_as_xyz
  1  'x, y, z'
loop_
 _atom_site_type_symbol
 _atom_site_label
 _atom_site_symmetry_multiplicity
 _atom_site_fract_x
 _atom_site_fract_y
 _atom_site_fract_z
 _atom_site_occupancy
  C  C0  1  0.50720969  0.31878886  0.51484260  1
  C  C1  1  0.00715413  0.18123522  0.98505752  1
  C  C2  1  0.49284468  0.81879730  0.48516194  1
  C  C3  1  0.99277102  0.68117222  0.01492168  1
  N  N4  1  0.62567583  0.28213695  0.58110328  1
  N  N5  1  0.45079005  0.28566651  0.38719222  1
  N  N6  1  0.12571521  0.21786918  0.91889948  1
  N  N7  1  0.95069449  0.21427966  0.11277190  1
  N  N8  1  0.54922837  0.78575303  0.61286820  1
  N  N9  1  0.37432587  0.78215828  0.41896191  1
  N  N10  1  0.04928427  0.71441331  0.88738499  1
  N  N11  1  0.87423030  0.71778536  0.08122613  1
  H  H12  1  0.45121277  0.38142835  0.57002504  1
  H  H13  1  0.66301902  0.31232444  0.68052621  1
  H  H14  1  0.68714739  0.22598894  0.53418631  1
  H  H15  1  0.36231307  0.32200263  0.33932889  1
  H  H16  1  0.49911629  0.22923677  0.32667226  1
  H  H17  1  0.95111383  0.11868790  0.92973645  1
  H  H18  1  0.16309026  0.18771912  0.81941182  1
  H  H19  1  0.18722518  0.27395948  0.96591361  1
  H  H20  1  0.86214174  0.17795400  0.16051941  1
  H  H21  1  0.99904554  0.27061013  0.17342776  1
  H  H22  1  0.54891107  0.88136938  0.42985559  1
  H  H23  1  0.63774187  0.82208633  0.66065553  1
  H  H24  1  0.50085373  0.72939613  0.67351033  1
  H  H25  1  0.33703959  0.81228930  0.31947458  1
  H  H26  1  0.31279450  0.72608495  0.46597639  1
  H  H27  1  0.04869396  0.61849930  0.07000308  1
  H  H28  1  0.13779260  0.67811538  0.83946636  1
  H  H29  1  0.00100715  0.77090438  0.82692958  1
  H  H30  1  0.83675450  0.68745489  0.18052840  1
  H  H31  1  0.81278375  0.77394968  0.03437751  1
  Ba  Ba32  1  0.48538174  0.00561398  0.98060959  1
  Ba  Ba33  1  0.98565624  0.49438792  0.51928898  1
  Ba  Ba34  1  0.01446018  0.99437749  0.48045301  1
  Ba  Ba35  1  0.51464510  0.50560720  0.01927599  1
  I  I36  1  0.51231993  0.25533133  0.98266681  1
  I  I37  1  0.15541911  0.95098984  0.13660625  1
  I  I38  1  0.68372377  0.05252589  0.30736635  1
  I  I39  1  0.01206176  0.24463887  0.51728708  1
  I  I40  1  0.34417388  0.04892063  0.63690125  1
  I  I41  1  0.81609952  0.94755328  0.80731237  1
  I  I42  1  0.48786672  0.75534697  0.01738360  1
  I  I43  1  0.65584411  0.54891078  0.36300908  1
  I  I44  1  0.18394108  0.44737409  0.19247544  1
  I  I45  1  0.98791272  0.74465515  0.48281945  1
  I  I46  1  0.31623786  0.55258938  0.69261809  1
  I  I47  1  0.84455390  0.45112283  0.86311443  1
