# generated using pymatgen
data_H5PtCI3N2
_symmetry_space_group_name_H-M   'P 1'
_cell_length_a   10.40370682
_cell_length_b   8.30077334
_cell_length_c   9.76589948
_cell_angle_alpha   90.04190665
_cell_angle_beta   90.00015062
_cell_angle_gamma   90.00657818
_symmetry_Int_Tables_number   1
_chemical_formula_structural   H5PtCI3N2
_chemical_formula_sum   'H20 Pt4 C4 I12 N8'
_cell_volume   843.37124861
_cell_formula_units_Z   4
loop_
 _symmetry_equiv_pos_site_id
 _symmetry_equiv_pos_as_xyz
  1  'x, y, z'
loop_
 _atom_site_type_symbol
 _atom_site_label
 _atom_site_symmetry_multiplicity
 _atom_site_fract_x
 _atom_site_fract_y
 _atom_site_fract_z
 _atom_site_occupancy
  C  C0  1  0.50393976  0.25755045  0.50792743  1
  C  C1  1  0.00379759  0.24268466  0.99206318  1
  C  C2  1  0.49622458  0.75843653  0.49208190  1
  C  C3  1  0.99615955  0.74154588  0.00794554  1
  N  N4  1  0.63018194  0.25684180  0.50635785  1
  N  N5  1  0.43119117  0.23077870  0.40033784  1
  N  N6  1  0.13004142  0.24295794  0.99359683  1
  N  N7  1  0.93113055  0.26908476  0.09978243  1
  N  N8  1  0.56886729  0.73181582  0.59974589  1
  N  N9  1  0.36998338  0.75736009  0.49346355  1
  N  N10  1  0.06881617  0.76838550  0.90035624  1
  N  N11  1  0.86989841  0.74252665  0.00651807  1
  H  H12  1  0.45626350  0.28320168  0.60540565  1
  H  H13  1  0.68124979  0.28180928  0.59332882  1
  H  H14  1  0.68034382  0.23216131  0.41875704  1
  H  H15  1  0.33332145  0.23545088  0.40906306  1
  H  H16  1  0.46953125  0.20799380  0.30576238  1
  H  H17  1  0.95604030  0.21780108  0.89449103  1
  H  H18  1  0.18102053  0.21837463  0.90649737  1
  H  H19  1  0.18029102  0.26691993  0.08128374  1
  H  H20  1  0.83324491  0.26483224  0.09105046  1
  H  H21  1  0.96953234  0.29117907  0.19444389  1
  H  H22  1  0.54399656  0.78433190  0.39473091  1
  H  H23  1  0.66674233  0.73671919  0.59118270  1
  H  H24  1  0.53042666  0.70871952  0.69419202  1
  H  H25  1  0.31899935  0.78196081  0.40640571  1
  H  H26  1  0.31974211  0.73234214  0.58091133  1
  H  H27  1  0.04388008  0.71552492  0.10529448  1
  H  H28  1  0.16669714  0.76358542  0.90895992  1
  H  H29  1  0.03041154  0.79164033  0.80591819  1
  H  H30  1  0.81888855  0.71769292  0.09351118  1
  H  H31  1  0.81969212  0.76765417  0.91908081  1
  Pt  Pt32  1  0.50474597  0.00789508  -0.00009870  1
  Pt  Pt33  1  0.00476332  0.49215035  0.50002168  1
  Pt  Pt34  1  0.99518781  0.99214461  0.49994595  1
  Pt  Pt35  1  0.49516035  0.50789262  1.00003404  1
  I  I36  1  0.61910299  0.26140647  0.89732760  1
  I  I37  1  0.14738492  0.99748893  0.28664956  1
  I  I38  1  0.66819856  0.00508070  0.20569329  1
  I  I39  1  0.11911450  0.23869465  0.60262977  1
  I  I40  1  0.35211702  0.00251808  0.78692999  1
  I  I41  1  0.83226052  0.99487441  0.70620276  1
  I  I42  1  0.38081441  0.76153642  0.10261475  1
  I  I43  1  0.64729373  0.50241123  0.21337794  1
  I  I44  1  0.16819611  0.49481955  0.29421313  1
  I  I45  1  0.88082917  0.73848182  0.39732963  1
  I  I46  1  0.33219139  0.50520738  0.79381532  1
  I  I47  1  0.85211140  0.49759669  0.71297062  1
