# generated using pymatgen
data_H5AuCI3N2
_symmetry_space_group_name_H-M   'P 1'
_cell_length_a   8.14962486
_cell_length_b   11.65194018
_cell_length_c   8.98387225
_cell_angle_alpha   90.20144949
_cell_angle_beta   90.00071203
_cell_angle_gamma   90.00032702
_symmetry_Int_Tables_number   1
_chemical_formula_structural   H5AuCI3N2
_chemical_formula_sum   'H20 Au4 C4 I12 N8'
_cell_volume   853.09372481
_cell_formula_units_Z   4
loop_
 _symmetry_equiv_pos_site_id
 _symmetry_equiv_pos_as_xyz
  1  'x, y, z'
loop_
 _atom_site_type_symbol
 _atom_site_label
 _atom_site_symmetry_multiplicity
 _atom_site_fract_x
 _atom_site_fract_y
 _atom_site_fract_z
 _atom_site_occupancy
  C  C0  1  0.49746847  0.28344123  0.49747514  1
  C  C1  1  0.99717877  0.21662713  0.00256785  1
  C  C2  1  0.50370351  0.78521968  0.50350845  1
  C  C3  1  0.00377207  0.71468736  0.99647604  1
  N  N4  1  0.58042022  0.23299053  0.60375558  1
  N  N5  1  0.41640082  0.23097476  0.39117647  1
  N  N6  1  0.08018367  0.26704222  0.89633977  1
  N  N7  1  0.91615795  0.26915599  0.10889407  1
  N  N8  1  0.58280924  0.73221199  0.61009033  1
  N  N9  1  0.41981165  0.73536405  0.39685995  1
  N  N10  1  0.08287089  0.76767963  0.88985794  1
  N  N11  1  0.91986648  0.76453676  0.10310994  1
  H  H12  1  0.49568117  0.37714749  0.49742570  1
  H  H13  1  0.64199141  0.28239310  0.67978426  1
  H  H14  1  0.59032732  0.14598547  0.61353622  1
  H  H15  1  0.35342902  0.27907446  0.31513717  1
  H  H16  1  0.40949989  0.14377814  0.38111996  1
  H  H17  1  0.99522052  0.12292653  0.00261269  1
  H  H18  1  0.14171240  0.21763316  0.82027561  1
  H  H19  1  0.09021215  0.35404925  0.88659861  1
  H  H20  1  0.85311274  0.22109543  0.18490996  1
  H  H21  1  0.90939991  0.35635060  0.11894530  1
  H  H22  1  0.50821984  0.87884397  0.50358679  1
  H  H23  1  0.64631196  0.77989706  0.68670943  1
  H  H24  1  0.58783859  0.64494617  0.61931298  1
  H  H25  1  0.36029909  0.78510566  0.32026730  1
  H  H26  1  0.40703463  0.64841970  0.38765253  1
  H  H27  1  0.00833428  0.62106287  0.99641903  1
  H  H28  1  0.14638674  0.71998538  0.81328444  1
  H  H29  1  0.08787592  0.85495068  0.88061294  1
  H  H30  1  0.86037703  0.71478957  0.17969922  1
  H  H31  1  0.90704696  0.85148071  0.11229491  1
  Au  Au32  1  0.49944828  0.97617230  0.99743837  1
  Au  Au33  1  0.99948803  0.52386955  0.50252420  1
  Au  Au34  1  0.00043080  0.02358515  0.49812410  1
  Au  Au35  1  0.50040713  0.47645271  0.00184069  1
  I  I36  1  0.49905781  0.24362168  0.99829259  1
  I  I37  1  0.25071440  0.97711475  0.18172363  1
  I  I38  1  0.74841817  0.02192017  0.30536880  1
  I  I39  1  0.99920774  0.25640446  0.50163887  1
  I  I40  1  0.25212986  0.02244213  0.69097025  1
  I  I41  1  0.74914758  0.97769983  0.81416304  1
  I  I42  1  0.50009783  0.71045544  0.00330651  1
  I  I43  1  0.75072948  0.52294338  0.31826325  1
  I  I44  1  0.24842671  0.47808979  0.19461797  1
  I  I45  1  0.00007703  0.78959125  0.49670759  1
  I  I46  1  0.24916730  0.52225066  0.68581428  1
  I  I47  1  0.75211590  0.47760298  0.80901405  1
