# generated using pymatgen
data_HgH5CI3N2
_symmetry_space_group_name_H-M   'P 1'
_cell_length_a   7.41214796
_cell_length_b   14.11580736
_cell_length_c   9.02501896
_cell_angle_alpha   90.01126737
_cell_angle_beta   89.99722524
_cell_angle_gamma   89.99358417
_symmetry_Int_Tables_number   1
_chemical_formula_structural   HgH5CI3N2
_chemical_formula_sum   'Hg4 H20 C4 I12 N8'
_cell_volume   944.27374458
_cell_formula_units_Z   4
loop_
 _symmetry_equiv_pos_site_id
 _symmetry_equiv_pos_as_xyz
  1  'x, y, z'
loop_
 _atom_site_type_symbol
 _atom_site_label
 _atom_site_symmetry_multiplicity
 _atom_site_fract_x
 _atom_site_fract_y
 _atom_site_fract_z
 _atom_site_occupancy
  C  C0  1  0.47445534  0.33570959  0.48653675  1
  C  C1  1  0.97446391  0.16429870  0.01340756  1
  C  C2  1  0.52569205  0.83573119  0.51336948  1
  C  C3  1  0.02540050  0.66421436  0.98668119  1
  N  N4  1  0.53006220  0.32976069  0.62424440  1
  N  N5  1  0.52141571  0.27799845  0.37935241  1
  N  N6  1  0.03007677  0.17029496  0.87570017  1
  N  N7  1  0.02137240  0.22198176  0.12062578  1
  N  N8  1  0.47885140  0.77805861  0.62058602  1
  N  N9  1  0.46978558  0.82979942  0.37572799  1
  N  N10  1  0.97864363  0.72184087  0.87936404  1
  N  N11  1  0.96955301  0.67028640  0.12432063  1
  H  H12  1  0.38212181  0.39339304  0.45926706  1
  H  H13  1  0.49205827  0.38118790  0.69736978  1
  H  H14  1  0.62576662  0.28265140  0.65841763  1
  H  H15  1  0.47115940  0.28797018  0.27500633  1
  H  H16  1  0.60749850  0.22204096  0.39460042  1
  H  H17  1  0.88217673  0.10660037  0.04063263  1
  H  H18  1  0.99214192  0.11888383  0.80253646  1
  H  H19  1  0.12572167  0.21743578  0.84155273  1
  H  H20  1  0.97111780  0.21197270  0.22496946  1
  H  H21  1  0.10744259  0.27794552  0.10542569  1
  H  H22  1  0.61819334  0.89336010  0.54051889  1
  H  H23  1  0.52930921  0.78802598  0.72487025  1
  H  H24  1  0.39267140  0.72214071  0.60542408  1
  H  H25  1  0.50765189  0.88121117  0.30256983  1
  H  H26  1  0.37379516  0.78279845  0.34173997  1
  H  H27  1  0.11776401  0.60649709  0.95960425  1
  H  H28  1  0.02909893  0.71176458  0.77510628  1
  H  H29  1  0.89261317  0.77783953  0.89445581  1
  H  H30  1  0.00735493  0.61891660  0.19757995  1
  H  H31  1  0.87373088  0.71740520  0.15827714  1
  Hg  Hg32  1  0.46511626  0.02678164  0.96408850  1
  Hg  Hg33  1  0.96496120  0.47325622  0.53593889  1
  Hg  Hg34  1  0.03512631  0.97343419  0.46427321  1
  Hg  Hg35  1  0.53492556  0.52656112  0.03571831  1
  I  I36  1  0.49598923  0.22314417  0.98316654  1
  I  I37  1  0.18767755  0.93993736  0.10696124  1
  I  I38  1  0.73184580  0.04631190  0.32156821  1
  I  I39  1  0.99605029  0.27689026  0.51684239  1
  I  I40  1  0.31283843  0.06010838  0.60705787  1
  I  I41  1  0.76843324  0.95364625  0.82164799  1
  I  I42  1  0.50370777  0.72293212  0.01682176  1
  I  I43  1  0.68746960  0.56011702  0.39315780  1
  I  I44  1  0.23169297  0.45368843  0.17847967  1
  I  I45  1  0.00404214  0.77704572  0.48315266  1
  I  I46  1  0.26827292  0.54633676  0.67839006  1
  I  I47  1  0.81270937  0.43985536  0.89299860  1
