# generated using pymatgen
data_H5PbCI3N2
_symmetry_space_group_name_H-M   'P 1'
_cell_length_a   8.74232718
_cell_length_b   12.47983127
_cell_length_c   8.73683119
_cell_angle_alpha   89.99507354
_cell_angle_beta   90.00026699
_cell_angle_gamma   89.99819918
_symmetry_Int_Tables_number   1
_chemical_formula_structural   H5PbCI3N2
_chemical_formula_sum   'H20 Pb4 C4 I12 N8'
_cell_volume   953.21246326
_cell_formula_units_Z   4
loop_
 _symmetry_equiv_pos_site_id
 _symmetry_equiv_pos_as_xyz
  1  'x, y, z'
loop_
 _atom_site_type_symbol
 _atom_site_label
 _atom_site_symmetry_multiplicity
 _atom_site_fract_x
 _atom_site_fract_y
 _atom_site_fract_z
 _atom_site_occupancy
  C  C0  1  0.49267950  0.28883372  0.49662984  1
  C  C1  1  0.99276469  0.21115377  0.00339501  1
  C  C2  1  0.50730763  0.78884209  0.50333982  1
  C  C3  1  0.00720430  0.71116171  0.99661999  1
  N  N4  1  0.58903755  0.24056971  0.58905467  1
  N  N5  1  0.39958266  0.24051736  0.40105662  1
  N  N6  1  0.08916704  0.25941567  0.91101998  1
  N  N7  1  0.89962770  0.25946445  0.09893785  1
  N  N8  1  0.60043806  0.74052728  0.59895145  1
  N  N9  1  0.41098165  0.74058343  0.41094999  1
  N  N10  1  0.10037721  0.75948588  0.90105381  1
  N  N11  1  0.91084047  0.75941735  0.08896723  1
  H  H12  1  0.48949686  0.37620199  0.49983978  1
  H  H13  1  0.65709903  0.28504617  0.65943765  1
  H  H14  1  0.59975491  0.15919581  0.59327222  1
  H  H15  1  0.32862603  0.28540486  0.33382991  1
  H  H16  1  0.39441265  0.15912709  0.39032785  1
  H  H17  1  0.98957563  0.12378632  0.00016562  1
  H  H18  1  0.15726960  0.21493341  0.84068401  1
  H  H19  1  0.09992351  0.34078634  0.90683960  1
  H  H20  1  0.82864578  0.21457000  0.16612793  1
  H  H21  1  0.89444854  0.34085457  0.10968572  1
  H  H22  1  0.51049836  0.87620989  0.50012257  1
  H  H23  1  0.67137005  0.78542315  0.66614936  1
  H  H24  1  0.60561543  0.65914320  0.60969662  1
  H  H25  1  0.34290149  0.78506378  0.34054480  1
  H  H26  1  0.40025327  0.65920335  0.40673474  1
  H  H27  1  0.01039839  0.62379079  0.99982011  1
  H  H28  1  0.17134022  0.71460057  0.83387781  1
  H  H29  1  0.10554628  0.84086951  0.89033954  1
  H  H30  1  0.84270981  0.71493883  0.15932395  1
  H  H31  1  0.90009184  0.84079599  0.09316523  1
  Pb  Pb32  1  0.50025727  0.99981524  0.99917791  1
  Pb  Pb33  1  0.00026712  0.50023030  0.50086104  1
  Pb  Pb34  1  0.99975035  0.00023111  0.49917304  1
  Pb  Pb35  1  0.49974469  0.49981447  0.00085129  1
  I  I36  1  0.49775684  0.24991790  0.99245172  1
  I  I37  1  0.19594505  0.98359707  0.19502122  1
  I  I38  1  0.69304527  0.02449882  0.30604741  1
  I  I39  1  0.99775629  0.25011222  0.50764135  1
  I  I40  1  0.30407387  0.01637102  0.69502076  1
  I  I41  1  0.80696039  0.97555079  0.80604325  1
  I  I42  1  0.50224098  0.74991503  0.00756087  1
  I  I43  1  0.69591516  0.51633907  0.30502911  1
  I  I44  1  0.19302202  0.47553363  0.19395261  1
  I  I45  1  0.00224688  0.75011320  0.49235234  1
  I  I46  1  0.30698496  0.52450341  0.69395372  1
  I  I47  1  0.80406606  0.48360165  0.80500584  1
