# generated using pymatgen
data_BeH10PbC2(I3N2)2
_symmetry_space_group_name_H-M   'P 1'
_cell_length_a   9.36250017
_cell_length_b   10.55493613
_cell_length_c   8.90720266
_cell_angle_alpha   89.07536738
_cell_angle_beta   90.00072959
_cell_angle_gamma   90.00229400
_symmetry_Int_Tables_number   1
_chemical_formula_structural   BeH10PbC2(I3N2)2
_chemical_formula_sum   'Be2 H20 Pb2 C4 I12 N8'
_cell_volume   880.10041855
_cell_formula_units_Z   2
loop_
 _symmetry_equiv_pos_site_id
 _symmetry_equiv_pos_as_xyz
  1  'x, y, z'
loop_
 _atom_site_type_symbol
 _atom_site_label
 _atom_site_symmetry_multiplicity
 _atom_site_fract_x
 _atom_site_fract_y
 _atom_site_fract_z
 _atom_site_occupancy
  C  C0  1  0.49616566  0.28751889  0.49789499  1
  C  C1  1  0.99617072  0.21248019  0.00212275  1
  C  C2  1  0.50404812  0.79685934  0.49961639  1
  C  C3  1  0.00403186  0.70313448  1.00038907  1
  N  N4  1  0.59057170  0.23347115  0.58689296  1
  N  N5  1  0.41116458  0.23041522  0.40336680  1
  N  N6  1  0.09058471  0.26652492  0.91312955  1
  N  N7  1  0.91117573  0.26958683  0.09665167  1
  N  N8  1  0.59145437  0.74122953  0.59488378  1
  N  N9  1  0.41161697  0.74034240  0.41251432  1
  N  N10  1  0.09140856  0.75877242  0.90509588  1
  N  N11  1  0.91157289  0.75963966  0.08747865  1
  H  H12  1  0.48590274  0.39012714  0.50398953  1
  H  H13  1  0.65074175  0.28902262  0.65596199  1
  H  H14  1  0.61006293  0.13839114  0.59122545  1
  H  H15  1  0.34383669  0.28496004  0.33808706  1
  H  H16  1  0.41315137  0.13557503  0.38407181  1
  H  H17  1  0.98589084  0.10987178  0.99602659  1
  H  H18  1  0.15074646  0.21097110  0.84406095  1
  H  H19  1  0.11009368  0.36160378  0.90880297  1
  H  H20  1  0.84383602  0.21504304  0.16192378  1
  H  H21  1  0.91317700  0.36442505  0.11594813  1
  H  H22  1  0.50976629  0.89975420  0.49140949  1
  H  H23  1  0.65858889  0.79561684  0.65833513  1
  H  H24  1  0.59491049  0.64545606  0.61226014  1
  H  H25  1  0.35078837  0.79369445  0.33978124  1
  H  H26  1  0.39702849  0.64453270  0.41072894  1
  H  H27  1  0.00980026  0.60024627  0.00864835  1
  H  H28  1  0.15855500  0.70439858  0.84166005  1
  H  H29  1  0.09480850  0.85454763  0.88767326  1
  H  H30  1  0.85077934  0.70628240  0.16022917  1
  H  H31  1  0.89694122  0.85544306  0.08921498  1
  Be  Be32  1  0.38824181  0.99968143  0.98338968  1
  Be  Be33  1  0.88825820  0.50033550  0.51662092  1
  Pb  Pb34  1  0.99101794  1.00001815  0.50304212  1
  Pb  Pb35  1  0.49102515  0.50001874  0.99694735  1
  I  I36  1  0.52455489  0.19431644  0.00255680  1
  I  I37  1  0.21862217  0.98678926  0.19057870  1
  I  I38  1  0.73977533  0.01267395  0.29777255  1
  I  I39  1  0.02457148  0.30570920  0.49745830  1
  I  I40  1  0.28731578  0.01266076  0.73107033  1
  I  I41  1  0.80532460  0.98546172  0.77252787  1
  I  I42  1  0.52542786  0.80546536  0.00579510  1
  I  I43  1  0.71862907  0.51319299  0.30943225  1
  I  I44  1  0.23979235  0.48733241  0.20223090  1
  I  I45  1  0.02543477  0.69456268  0.49419816  1
  I  I46  1  0.30532580  0.51456406  0.72747190  1
  I  I47  1  0.78732994  0.48734239  0.76893600  1
