# generated using pymatgen
data_BeHgH10C2(I3N2)2
_symmetry_space_group_name_H-M   'P 1'
_cell_length_a   7.20974376
_cell_length_b   14.29740743
_cell_length_c   8.75874665
_cell_angle_alpha   89.92667088
_cell_angle_beta   89.99410844
_cell_angle_gamma   89.97652851
_symmetry_Int_Tables_number   1
_chemical_formula_structural   BeHgH10C2(I3N2)2
_chemical_formula_sum   'Be2 Hg2 H20 C4 I12 N8'
_cell_volume   902.85642512
_cell_formula_units_Z   2
loop_
 _symmetry_equiv_pos_site_id
 _symmetry_equiv_pos_as_xyz
  1  'x, y, z'
loop_
 _atom_site_type_symbol
 _atom_site_label
 _atom_site_symmetry_multiplicity
 _atom_site_fract_x
 _atom_site_fract_y
 _atom_site_fract_z
 _atom_site_occupancy
  C  C0  1  0.45959081  0.32896125  0.48280918  1
  C  C1  1  0.95884012  0.17116049  0.01716552  1
  C  C2  1  0.53882399  0.83091339  0.52128586  1
  C  C3  1  0.03820270  0.66894936  0.97875094  1
  N  N4  1  0.49295992  0.32082928  0.62919348  1
  N  N5  1  0.49170276  0.26457642  0.37962950  1
  N  N6  1  0.99227100  0.17893739  0.87073588  1
  N  N7  1  0.99243287  0.23543767  0.12019649  1
  N  N8  1  0.50765666  0.76323278  0.61920665  1
  N  N9  1  0.50288339  0.82725851  0.37475567  1
  N  N10  1  0.00838718  0.73673315  0.88072488  1
  N  N11  1  0.00260484  0.67296883  0.12530778  1
  H  H12  1  0.40196102  0.39547113  0.44379243  1
  H  H13  1  0.46241516  0.37638612  0.69765620  1
  H  H14  1  0.54429817  0.26221827  0.68076384  1
  H  H15  1  0.45747476  0.27714391  0.26827175  1
  H  H16  1  0.54924150  0.20079663  0.40445971  1
  H  H17  1  0.89975343  0.10503434  0.05637821  1
  H  H18  1  0.96012950  0.12350066  0.80250270  1
  H  H19  1  0.04492454  0.23715723  0.81895083  1
  H  H20  1  0.95808349  0.22315894  0.23160657  1
  H  H21  1  0.05136080  0.29884207  0.09521677  1
  H  H22  1  0.59668647  0.89607727  0.56585083  1
  H  H23  1  0.53887214  0.77213787  0.73243972  1
  H  H24  1  0.45256017  0.70013704  0.58814612  1
  H  H25  1  0.52960401  0.88453406  0.30825825  1
  H  H26  1  0.44973497  0.76973106  0.32144368  1
  H  H27  1  0.09451667  0.60339897  0.93427403  1
  H  H28  1  0.03924587  0.72753989  0.76748182  1
  H  H29  1  0.95499884  0.80023314  0.91175735  1
  H  H30  1  0.02804960  0.61558846  0.19195213  1
  H  H31  1  0.95078114  0.73085196  0.17853521  1
  Be  Be32  1  0.44833176  0.03780408  0.91497369  1
  Be  Be33  1  0.94901330  0.46219219  0.58487561  1
  Hg  Hg34  1  0.03352580  0.97182245  0.48666701  1
  Hg  Hg35  1  0.53355096  0.52826258  0.01350869  1
  I  I36  1  0.48396700  0.19837597  0.97985240  1
  I  I37  1  0.24465980  0.95594499  0.07605678  1
  I  I38  1  0.74001290  0.04922534  0.33231002  1
  I  I39  1  0.98467437  0.30161656  0.52020066  1
  I  I40  1  0.31400933  0.06585539  0.63517909  1
  I  I41  1  0.73616660  0.96136530  0.85280659  1
  I  I42  1  0.52267368  0.71968368  0.01985475  1
  I  I43  1  0.74501082  0.54403567  0.42399961  1
  I  I44  1  0.24007605  0.45082503  0.16778379  1
  I  I45  1  0.02283678  0.78038644  0.48017025  1
  I  I46  1  0.23644578  0.53867195  0.64750221  1
  I  I47  1  0.81401591  0.43409785  0.86486362  1
