# generated using pymatgen
data_BeH10PtC2(I3N2)2
_symmetry_space_group_name_H-M   'P 1'
_cell_length_a   8.52876193
_cell_length_b   11.64273793
_cell_length_c   8.51845282
_cell_angle_alpha   89.79683037
_cell_angle_beta   89.99892430
_cell_angle_gamma   90.00238717
_symmetry_Int_Tables_number   1
_chemical_formula_structural   BeH10PtC2(I3N2)2
_chemical_formula_sum   'Be2 H20 Pt2 C4 I12 N8'
_cell_volume   845.86120158
_cell_formula_units_Z   2
loop_
 _symmetry_equiv_pos_site_id
 _symmetry_equiv_pos_as_xyz
  1  'x, y, z'
loop_
 _atom_site_type_symbol
 _atom_site_label
 _atom_site_symmetry_multiplicity
 _atom_site_fract_x
 _atom_site_fract_y
 _atom_site_fract_z
 _atom_site_occupancy
  C  C0  1  0.49486358  0.28939114  0.49541834  1
  C  C1  1  0.99492415  0.21060562  0.00458316  1
  C  C2  1  0.50431180  0.78947216  0.50455245  1
  C  C3  1  0.00423622  0.71052602  0.99543680  1
  N  N4  1  0.59182698  0.23890675  0.59327746  1
  N  N5  1  0.40107757  0.23724627  0.39663008  1
  N  N6  1  0.09190877  0.26109137  0.90673425  1
  N  N7  1  0.90115177  0.26275098  0.10336635  1
  N  N8  1  0.60223560  0.73726352  0.59969918  1
  N  N9  1  0.40457721  0.73903083  0.41000839  1
  N  N10  1  0.10214112  0.76275622  0.90031751  1
  N  N11  1  0.90445228  0.76094233  0.08998291  1
  H  H12  1  0.49183855  0.38311607  0.49628914  1
  H  H13  1  0.65729985  0.28946548  0.66649804  1
  H  H14  1  0.60740207  0.15189612  0.59974788  1
  H  H15  1  0.33265392  0.28701159  0.32465596  1
  H  H16  1  0.38987835  0.14994328  0.38896875  1
  H  H17  1  0.99185921  0.11688532  0.00371313  1
  H  H18  1  0.15738062  0.21052736  0.83349744  1
  H  H19  1  0.10752271  0.34811164  0.90026943  1
  H  H20  1  0.83271389  0.21298958  0.17532212  1
  H  H21  1  0.88997962  0.35004360  0.11103537  1
  H  H22  1  0.50622686  0.88321590  0.50401652  1
  H  H23  1  0.67591751  0.78692688  0.66591391  1
  H  H24  1  0.60806743  0.65003423  0.61368691  1
  H  H25  1  0.33259804  0.78972407  0.34283101  1
  H  H26  1  0.39610794  0.65191830  0.39729328  1
  H  H27  1  0.00615205  0.61678575  0.99600685  1
  H  H28  1  0.17583484  0.71312200  0.83411070  1
  H  H29  1  0.10794721  0.84999179  0.88631944  1
  H  H30  1  0.83247668  0.71022303  0.15715344  1
  H  H31  1  0.89595455  0.84805019  0.10268708  1
  Be  Be32  1  0.50210349  0.99999215  0.00347924  1
  Be  Be33  1  0.00260441  0.50003034  0.49700108  1
  Pt  Pt34  1  0.00045653  0.00002393  0.49740912  1
  Pt  Pt35  1  0.50038381  0.49999220  0.00253301  1
  I  I36  1  0.49927736  0.18869008  0.99676879  1
  I  I37  1  0.18946727  0.98353995  0.25325759  1
  I  I38  1  0.75569253  0.01218678  0.30806835  1
  I  I39  1  0.99921726  0.31133031  0.50326066  1
  I  I40  1  0.24389188  0.01641088  0.68665638  1
  I  I41  1  0.81127311  0.98772131  0.74192819  1
  I  I42  1  0.50102981  0.81126156  0.00051779  1
  I  I43  1  0.68939512  0.51638004  0.24663626  1
  I  I44  1  0.25562710  0.48781549  0.19188458  1
  I  I45  1  0.00104681  0.68876233  0.49941719  1
  I  I46  1  0.31120370  0.51236510  0.75797108  1
  I  I47  1  0.74383022  0.48359516  0.81329215  1
