# generated using pymatgen
data_BaBeH10C2(I3N2)2
_symmetry_space_group_name_H-M   'P 1'
_cell_length_a   9.44386123
_cell_length_b   10.68570508
_cell_length_c   9.19605278
_cell_angle_alpha   88.75126731
_cell_angle_beta   89.99956527
_cell_angle_gamma   89.99964697
_symmetry_Int_Tables_number   1
_chemical_formula_structural   BaBeH10C2(I3N2)2
_chemical_formula_sum   'Ba2 Be2 H20 C4 I12 N8'
_cell_volume   927.79298080
_cell_formula_units_Z   2
loop_
 _symmetry_equiv_pos_site_id
 _symmetry_equiv_pos_as_xyz
  1  'x, y, z'
loop_
 _atom_site_type_symbol
 _atom_site_label
 _atom_site_symmetry_multiplicity
 _atom_site_fract_x
 _atom_site_fract_y
 _atom_site_fract_z
 _atom_site_occupancy
  C  C0  1  0.48481435  0.26841925  0.50938193  1
  C  C1  1  0.98479769  0.23158059  0.99064835  1
  C  C2  1  0.50562855  0.79653983  0.48350020  1
  C  C3  1  0.00563097  0.70346912  0.01650498  1
  N  N4  1  0.59569239  0.22424981  0.57957032  1
  N  N5  1  0.43268347  0.22228271  0.38893461  1
  N  N6  1  0.09568793  0.27575219  0.92045540  1
  N  N7  1  0.93267754  0.27771275  0.11107997  1
  N  N8  1  0.57031908  0.75315589  0.60014848  1
  N  N9  1  0.40019153  0.74101094  0.41674773  1
  N  N10  1  0.07028548  0.74682332  0.89982770  1
  N  N11  1  0.90017372  0.75900556  0.08325939  1
  H  H12  1  0.42998180  0.34863399  0.55598429  1
  H  H13  1  0.62728450  0.26467583  0.67361439  1
  H  H14  1  0.65498501  0.15137489  0.54180256  1
  H  H15  1  0.35423325  0.27146743  0.33541478  1
  H  H16  1  0.48505995  0.15410344  0.33350747  1
  H  H17  1  0.92997176  0.15136665  0.94402828  1
  H  H18  1  0.12727399  0.23533695  0.82640002  1
  H  H19  1  0.15496869  0.34862393  0.95823102  1
  H  H20  1  0.85421312  0.22851954  0.16460902  1
  H  H21  1  0.98503617  0.34588303  0.16651734  1
  H  H22  1  0.54460992  0.88469112  0.43571418  1
  H  H23  1  0.64756691  0.80608940  0.64819739  1
  H  H24  1  0.53692686  0.67261462  0.65253117  1
  H  H25  1  0.36148775  0.77943133  0.32230851  1
  H  H26  1  0.35654791  0.65869163  0.45402806  1
  H  H27  1  0.04463700  0.61534889  0.06433180  1
  H  H28  1  0.14754364  0.69389061  0.85178023  1
  H  H29  1  0.03686267  0.82735076  0.84740607  1
  H  H30  1  0.86151167  0.72062343  0.17770990  1
  H  H31  1  0.85651608  0.84130892  0.04592884  1
  Be  Be32  1  0.38565327  0.00042024  0.97184719  1
  Be  Be33  1  0.88564587  0.49958366  0.52814780  1
  Ba  Ba34  1  0.02850027  0.99933724  0.48214811  1
  Ba  Ba35  1  0.52850048  0.50067833  0.01784835  1
  I  I36  1  0.52388444  0.18954911  0.97937433  1
  I  I37  1  0.20359185  0.99847240  0.15728302  1
  I  I38  1  0.73706899  0.02929084  0.29143842  1
  I  I39  1  0.02389434  0.31046104  0.52063102  1
  I  I40  1  0.29614291  0.99764305  0.72580098  1
  I  I41  1  0.81646827  0.97497455  0.76706301  1
  I  I42  1  0.52080129  0.81386462  0.01913739  1
  I  I43  1  0.70357523  0.50151512  0.34273205  1
  I  I44  1  0.23707195  0.47070840  0.20856605  1
  I  I45  1  0.02078571  0.68614543  0.48084795  1
  I  I46  1  0.31647689  0.52503862  0.73292794  1
  I  I47  1  0.79615623  0.50235197  0.77420678  1
