# generated using pymatgen
data_BeSnH10C2(I3N2)2
_symmetry_space_group_name_H-M   'P 1'
_cell_length_a   9.35942155
_cell_length_b   10.48318738
_cell_length_c   8.87801181
_cell_angle_alpha   89.02350501
_cell_angle_beta   89.99895204
_cell_angle_gamma   90.00521101
_symmetry_Int_Tables_number   1
_chemical_formula_structural   BeSnH10C2(I3N2)2
_chemical_formula_sum   'Be2 Sn2 H20 C4 I12 N8'
_cell_volume   870.95355575
_cell_formula_units_Z   2
loop_
 _symmetry_equiv_pos_site_id
 _symmetry_equiv_pos_as_xyz
  1  'x, y, z'
loop_
 _atom_site_type_symbol
 _atom_site_label
 _atom_site_symmetry_multiplicity
 _atom_site_fract_x
 _atom_site_fract_y
 _atom_site_fract_z
 _atom_site_occupancy
  C  C0  1  0.49622700  0.28871540  0.49710588  1
  C  C1  1  0.99624826  0.21126801  0.00292499  1
  C  C2  1  0.50353476  0.79624799  0.50069617  1
  C  C3  1  0.00351828  0.70372710  0.99929159  1
  N  N4  1  0.58965964  0.23439369  0.58760579  1
  N  N5  1  0.40969836  0.23095283  0.40414561  1
  N  N6  1  0.08972531  0.26557609  0.91244411  1
  N  N7  1  0.90969597  0.26904328  0.09584601  1
  N  N8  1  0.59250111  0.73976581  0.59426979  1
  N  N9  1  0.41175763  0.73968257  0.41238407  1
  N  N10  1  0.09243180  0.76022169  0.90568553  1
  N  N11  1  0.91173159  0.76027880  0.08761515  1
  H  H12  1  0.48875203  0.39234425  0.49989524  1
  H  H13  1  0.65109302  0.29066534  0.65538481  1
  H  H14  1  0.60652123  0.13838322  0.59513396  1
  H  H15  1  0.34306371  0.28570120  0.33771853  1
  H  H16  1  0.40806391  0.13493066  0.38838240  1
  H  H17  1  0.98877260  0.10764269  0.00011083  1
  H  H18  1  0.15117129  0.20931391  0.84465967  1
  H  H19  1  0.10660394  0.36159057  0.90491183  1
  H  H20  1  0.84303581  0.21428442  0.16225340  1
  H  H21  1  0.90808729  0.36506680  0.11160912  1
  H  H22  1  0.50675372  0.90000969  0.49556297  1
  H  H23  1  0.65916303  0.79418362  0.65867385  1
  H  H24  1  0.59846794  0.64310786  0.60916894  1
  H  H25  1  0.34918914  0.79391460  0.34146402  1
  H  H26  1  0.39988139  0.64307327  0.40717688  1
  H  H27  1  0.00676058  0.59997061  0.00447926  1
  H  H28  1  0.15909274  0.70581915  0.84127833  1
  H  H29  1  0.09836429  0.85687555  0.89075112  1
  H  H30  1  0.84919852  0.70603803  0.15857858  1
  H  H31  1  0.89982400  0.85688758  0.09279872  1
  Be  Be32  1  0.38881292  0.99962337  0.98371191  1
  Be  Be33  1  0.88882683  0.50043172  0.51630796  1
  Sn  Sn34  1  0.98757610  0.00051991  0.50324690  1
  Sn  Sn35  1  0.48758421  0.49962266  0.99675779  1
  I  I36  1  0.52561488  0.19617319  0.00405359  1
  I  I37  1  0.22052997  0.98661265  0.19244377  1
  I  I38  1  0.74317347  0.01082862  0.30155584  1
  I  I39  1  0.02565989  0.30390399  0.49597956  1
  I  I40  1  0.28634367  0.01331261  0.73169961  1
  I  I41  1  0.80711651  0.98713747  0.76732292  1
  I  I42  1  0.52650187  0.80342101  0.00449677  1
  I  I43  1  0.72055595  0.51333411  0.30756375  1
  I  I44  1  0.24317691  0.48920751  0.19845225  1
  I  I45  1  0.02647511  0.69665864  0.49551863  1
  I  I46  1  0.30714811  0.51292582  0.73267783  1
  I  I47  1  0.78633302  0.48667341  0.76830853  1
