# generated using pymatgen
data_SiH12C2(I2N)3
_symmetry_space_group_name_H-M   'P 1'
_cell_length_a   9.84515472
_cell_length_b   11.04740839
_cell_length_c   8.24765018
_cell_angle_alpha   103.29959066
_cell_angle_beta   82.15786827
_cell_angle_gamma   88.26399787
_symmetry_Int_Tables_number   1
_chemical_formula_structural   SiH12C2(I2N)3
_chemical_formula_sum   'Si2 H24 C4 I12 N6'
_cell_volume   863.04838157
_cell_formula_units_Z   2
loop_
 _symmetry_equiv_pos_site_id
 _symmetry_equiv_pos_as_xyz
  1  'x, y, z'
loop_
 _atom_site_type_symbol
 _atom_site_label
 _atom_site_symmetry_multiplicity
 _atom_site_fract_x
 _atom_site_fract_y
 _atom_site_fract_z
 _atom_site_occupancy
  C  C0  1  0.54444216  0.31183282  0.46215745  1
  C  C1  1  0.84906325  0.18507774  0.10274641  1
  C  C2  1  0.53416373  0.65780815  0.51476771  1
  C  C3  1  0.90583738  0.82620151  0.98714855  1
  N  N4  1  0.55464875  0.23957757  0.59114531  1
  N  N5  1  0.96059115  0.17707541  0.96347212  1
  N  N6  1  0.48612317  0.66855538  0.35608536  1
  N  N7  1  0.97191360  0.80576305  0.13133979  1
  H  H8  1  0.64408795  0.34728085  0.42623055  1
  H  H9  1  0.51242450  0.25104896  0.35130513  1
  H  H10  1  0.46625675  0.38883539  0.51239941  1
  H  H11  1  0.64495982  0.18140347  0.56147805  1
  H  H12  1  0.55630918  0.29693044  0.70909293  1
  H  H13  1  0.46570148  0.18070529  0.60323510  1
  H  H14  1  0.88064648  0.23765121  0.22046511  1
  H  H15  1  0.82873157  0.09129074  0.11967074  1
  H  H16  1  0.75136264  0.23003859  0.08722211  1
  H  H17  1  0.29294185  0.14261861  0.77004467  1
  H  H18  1  0.98056697  0.26402514  0.94596857  1
  H  H19  1  0.93488062  0.12723383  0.85171745  1
  H  H20  1  0.44625945  0.67133595  0.61509593  1
  H  H21  1  0.58615624  0.56585215  0.49527153  1
  H  H22  1  0.60749695  0.72875291  0.54809011  1
  H  H23  1  0.43472227  0.75444242  0.37090934  1
  H  H24  1  0.42054678  0.59705318  0.30552630  1
  H  H25  1  0.57149891  0.66066559  0.26366306  1
  H  H26  1  0.79614456  0.84933888  0.03105534  1
  H  H27  1  0.95300204  0.90230599  0.93990173  1
  H  H28  1  0.91933558  0.74014662  0.88786057  1
  H  H29  1  0.94721785  0.88019564  0.23861157  1
  H  H30  1  0.93516165  0.72460505  0.16409203  1
  H  H31  1  0.07775316  0.79457882  0.10148226  1
  N  N32  1  0.31985872  0.12249508  0.64012640  1
  N  N33  1  0.33983707  0.49117335  0.16616202  1
  Si  Si34  1  0.43016031  0.93981634  0.03753527  1
  Si  Si35  1  0.04807611  0.46347030  0.49983582  1
  I  I36  1  0.46430343  0.33163848  0.04406633  1
  I  I37  1  0.20739086  0.05965602  0.06920677  1
  I  I38  1  0.57226829  0.97270802  0.27082260  1
  I  I39  1  0.17697275  0.28233243  0.56436029  1
  I  I40  1  0.59905300  0.97716895  0.80269258  1
  I  I41  1  0.85848988  0.03747529  0.50207020  1
  I  I42  1  0.37734063  0.71568339  0.99312658  1
  I  I43  1  0.80694172  0.53588990  0.16080679  1
  I  I44  1  0.13198993  0.47960656  0.16610315  1
  I  I45  1  0.24380723  0.94823762  0.57165615  1
  I  I46  1  0.15075668  0.66547618  0.61581376  1
  I  I47  1  0.81182867  0.49702302  0.66665961  1
