# generated using pymatgen
data_BeCdH10C2(I3N2)2
_symmetry_space_group_name_H-M   'P 1'
_cell_length_a   9.05537465
_cell_length_b   10.74169270
_cell_length_c   8.96381575
_cell_angle_alpha   89.81941924
_cell_angle_beta   90.00747315
_cell_angle_gamma   89.99423987
_symmetry_Int_Tables_number   1
_chemical_formula_structural   BeCdH10C2(I3N2)2
_chemical_formula_sum   'Be2 Cd2 H20 C4 I12 N8'
_cell_volume   871.90647971
_cell_formula_units_Z   2
loop_
 _symmetry_equiv_pos_site_id
 _symmetry_equiv_pos_as_xyz
  1  'x, y, z'
loop_
 _atom_site_type_symbol
 _atom_site_label
 _atom_site_symmetry_multiplicity
 _atom_site_fract_x
 _atom_site_fract_y
 _atom_site_fract_z
 _atom_site_occupancy
  C  C0  1  0.50425086  0.29164066  0.49586467  1
  C  C1  1  0.00404784  0.20828439  0.00409946  1
  C  C2  1  0.50716006  0.79101857  0.49796128  1
  C  C3  1  0.00704176  0.70898246  0.00196016  1
  N  N4  1  0.59684176  0.23565431  0.58673073  1
  N  N5  1  0.41603003  0.23735483  0.40017430  1
  N  N6  1  0.09669353  0.26426208  0.91329942  1
  N  N7  1  0.91587924  0.26258805  0.09979612  1
  N  N8  1  0.60020161  0.73855011  0.59114136  1
  N  N9  1  0.40833313  0.73407098  0.41572043  1
  N  N10  1  0.10000737  0.76144676  0.90871252  1
  N  N11  1  0.90824355  0.76592890  0.08420859  1
  H  H12  1  0.49933380  0.39283998  0.50123225  1
  H  H13  1  0.65932419  0.28782241  0.65826444  1
  H  H14  1  0.61315600  0.14165767  0.58792852  1
  H  H15  1  0.34817119  0.29176501  0.33514100  1
  H  H16  1  0.41023395  0.14322375  0.38556148  1
  H  H17  1  0.99901552  0.10711652  0.99863734  1
  H  H18  1  0.15915160  0.21210070  0.84177585  1
  H  H19  1  0.11312497  0.35824733  0.91224836  1
  H  H20  1  0.84793841  0.20819876  0.16474687  1
  H  H21  1  0.91014375  0.35673837  0.11444297  1
  H  H22  1  0.51399024  0.89184066  0.48600899  1
  H  H23  1  0.67235096  0.79369482  0.64958173  1
  H  H24  1  0.60042540  0.64554043  0.61459509  1
  H  H25  1  0.34001540  0.78699670  0.34975641  1
  H  H26  1  0.39274937  0.64003049  0.41486760  1
  H  H27  1  0.01392197  0.60816800  0.01396908  1
  H  H28  1  0.17206348  0.70629136  0.85020650  1
  H  H29  1  0.10008155  0.85442499  0.88514806  1
  H  H30  1  0.84001255  0.71303271  0.15024511  1
  H  H31  1  0.89261776  0.85998744  0.08502201  1
  Be  Be32  1  0.43649422  0.00937267  0.90883909  1
  Be  Be33  1  0.93683341  0.49058974  0.59148744  1
  Cd  Cd34  1  0.95985442  0.99354661  0.48183195  1
  Cd  Cd35  1  0.45956531  0.50746292  0.01841935  1
  I  I36  1  0.50802536  0.19958435  0.00061859  1
  I  I37  1  0.18539897  0.98417316  0.26803642  1
  I  I38  1  0.72015405  0.01859422  0.29131135  1
  I  I39  1  0.00841760  0.30037600  0.49944182  1
  I  I40  1  0.28572549  0.01615149  0.70086707  1
  I  I41  1  0.82352785  0.98294477  0.76005658  1
  I  I42  1  0.49938564  0.81885065  0.00795296  1
  I  I43  1  0.68534410  0.51583396  0.23202337  1
  I  I44  1  0.21994448  0.48135519  0.20871990  1
  I  I45  1  0.99933771  0.68109292  0.49230557  1
  I  I46  1  0.32365457  0.51702582  0.73995233  1
  I  I47  1  0.78580336  0.48360832  0.79919226  1
