# generated using pymatgen
data_BeH10PdC2(I3N2)2
_symmetry_space_group_name_H-M   'P 1'
_cell_length_a   8.30646333
_cell_length_b   11.61556757
_cell_length_c   8.58269298
_cell_angle_alpha   89.94244529
_cell_angle_beta   89.58918746
_cell_angle_gamma   89.97907292
_symmetry_Int_Tables_number   1
_chemical_formula_structural   BeH10PdC2(I3N2)2
_chemical_formula_sum   'Be2 H20 Pd2 C4 I12 N8'
_cell_volume   828.07324863
_cell_formula_units_Z   2
loop_
 _symmetry_equiv_pos_site_id
 _symmetry_equiv_pos_as_xyz
  1  'x, y, z'
loop_
 _atom_site_type_symbol
 _atom_site_label
 _atom_site_symmetry_multiplicity
 _atom_site_fract_x
 _atom_site_fract_y
 _atom_site_fract_z
 _atom_site_occupancy
  C  C0  1  0.49427445  0.28957683  0.49705338  1
  C  C1  1  0.99428569  0.21061353  0.00328218  1
  C  C2  1  0.50428603  0.78805838  0.50411848  1
  C  C3  1  0.00424786  0.71191207  0.99562812  1
  N  N4  1  0.58888578  0.24008018  0.59867877  1
  N  N5  1  0.40374447  0.23572554  0.39599066  1
  N  N6  1  0.08988495  0.25983910  0.90097253  1
  N  N7  1  0.90341462  0.26428227  0.10550088  1
  N  N8  1  0.60276413  0.73595394  0.59966466  1
  N  N9  1  0.40463411  0.73712239  0.40835203  1
  N  N10  1  0.10341093  0.76422760  0.89953361  1
  N  N11  1  0.90373823  0.76221913  0.09249560  1
  H  H12  1  0.49069646  0.38347584  0.49653657  1
  H  H13  1  0.65476610  0.29130766  0.67143415  1
  H  H14  1  0.60510907  0.15295008  0.60676711  1
  H  H15  1  0.33421250  0.28317997  0.32193298  1
  H  H16  1  0.39368245  0.14826813  0.39212735  1
  H  H17  1  0.99005820  0.11671195  0.00342603  1
  H  H18  1  0.15626223  0.20842592  0.82789266  1
  H  H19  1  0.10605732  0.34693662  0.89218196  1
  H  H20  1  0.83293013  0.21613460  0.17894845  1
  H  H21  1  0.89224287  0.35177172  0.11032294  1
  H  H22  1  0.50533115  0.88202221  0.50460157  1
  H  H23  1  0.67775903  0.78580966  0.66556006  1
  H  H24  1  0.61039721  0.64855751  0.61158451  1
  H  H25  1  0.32980908  0.78665541  0.34195165  1
  H  H26  1  0.39506044  0.64991755  0.39916238  1
  H  H27  1  0.00550383  0.61793657  0.99479717  1
  H  H28  1  0.17893451  0.71439424  0.83302469  1
  H  H29  1  0.11070194  0.85159979  0.88718870  1
  H  H30  1  0.82895510  0.71176246  0.15896587  1
  H  H31  1  0.89136365  0.84938236  0.10168416  1
  Be  Be32  1  0.48445351  0.99869965  0.10789827  1
  Be  Be33  1  0.02491459  0.50179585  0.40062958  1
  Pd  Pd34  1  0.00437405  -0.00048959  0.48877402  1
  Pd  Pd35  1  0.50245336  0.50596963  0.01095386  1
  I  I36  1  0.49760681  0.17775422  0.99385461  1
  I  I37  1  0.19923084  0.97940627  0.23507139  1
  I  I38  1  0.74022058  0.01908053  0.30055670  1
  I  I39  1  0.99376670  0.32313743  0.51011255  1
  I  I40  1  0.24879109  0.01772969  0.67748713  1
  I  I41  1  0.81511355  0.98713485  0.73337453  1
  I  I42  1  0.50753219  0.82059187  0.99378015  1
  I  I43  1  0.69433521  0.51900505  0.25827736  1
  I  I44  1  0.23217224  0.47639037  0.19515984  1
  I  I45  1  0.00443212  0.68150442  0.50478064  1
  I  I46  1  0.31525474  0.51341337  0.76506569  1
  I  I47  1  0.74796324  0.48212816  0.82296658  1
