# generated using pymatgen
data_SrBeH10C2(I3N2)2
_symmetry_space_group_name_H-M   'P 1'
_cell_length_a   9.44049408
_cell_length_b   10.49938542
_cell_length_c   8.91635605
_cell_angle_alpha   88.96703528
_cell_angle_beta   89.99793191
_cell_angle_gamma   89.99925281
_symmetry_Int_Tables_number   1
_chemical_formula_structural   SrBeH10C2(I3N2)2
_chemical_formula_sum   'Sr2 Be2 H20 C4 I12 N8'
_cell_volume   883.64011102
_cell_formula_units_Z   2
loop_
 _symmetry_equiv_pos_site_id
 _symmetry_equiv_pos_as_xyz
  1  'x, y, z'
loop_
 _atom_site_type_symbol
 _atom_site_label
 _atom_site_symmetry_multiplicity
 _atom_site_fract_x
 _atom_site_fract_y
 _atom_site_fract_z
 _atom_site_occupancy
  C  C0  1  0.49327561  0.27389470  0.50484524  1
  C  C1  1  0.99329563  0.22611011  0.99516746  1
  C  C2  1  0.50352098  0.80118755  0.48679048  1
  C  C3  1  0.00351671  0.69882100  0.01322850  1
  N  N4  1  0.59847250  0.22429269  0.58227131  1
  N  N5  1  0.42903689  0.21993832  0.39155465  1
  N  N6  1  0.09849741  0.27571302  0.91772600  1
  N  N7  1  0.92906691  0.28006661  0.10846128  1
  N  N8  1  0.57865708  0.75199004  0.59707030  1
  N  N9  1  0.40079401  0.74299498  0.41585085  1
  N  N10  1  0.07863358  0.74799793  0.90291342  1
  N  N11  1  0.90076642  0.75701415  0.08414697  1
  H  H12  1  0.45264639  0.36627456  0.54019357  1
  H  H13  1  0.64101204  0.27391029  0.66880947  1
  H  H14  1  0.64609584  0.14010181  0.55542507  1
  H  H15  1  0.35509967  0.27246100  0.33254165  1
  H  H16  1  0.46702869  0.13907726  0.34385938  1
  H  H17  1  0.95266968  0.13373526  0.95981965  1
  H  H18  1  0.14103361  0.22609127  0.83118908  1
  H  H19  1  0.14612021  0.35989889  0.94456214  1
  H  H20  1  0.85512300  0.22754536  0.16748333  1
  H  H21  1  0.96705167  0.36092573  0.15615879  1
  H  H22  1  0.53175765  0.89707328  0.44791178  1
  H  H23  1  0.65430403  0.80652233  0.64860271  1
  H  H24  1  0.55668860  0.66372132  0.64182314  1
  H  H25  1  0.35201736  0.78784641  0.32739536  1
  H  H26  1  0.36710786  0.65320715  0.44453138  1
  H  H27  1  0.03179062  0.60295819  0.05215339  1
  H  H28  1  0.15429631  0.69346246  0.85140274  1
  H  H29  1  0.05662976  0.83624325  0.85811844  1
  H  H30  1  0.85200887  0.71218444  0.17262649  1
  H  H31  1  0.86704742  0.84678273  0.05542247  1
  Be  Be32  1  0.37934597  0.99953075  0.97665500  1
  Be  Be33  1  0.87934850  0.50047005  0.52334099  1
  Sr  Sr34  1  0.01275213  0.99966790  0.49195437  1
  Sr  Sr35  1  0.51275874  0.50033362  0.00805020  1
  I  I36  1  0.51713179  0.19197181  0.98852763  1
  I  I37  1  0.20180361  0.99272820  0.17668877  1
  I  I38  1  0.74498917  0.02204217  0.29003620  1
  I  I39  1  0.01714430  0.30802744  0.51147957  1
  I  I40  1  0.28478271  0.00466698  0.72080510  1
  I  I41  1  0.81519875  0.97840500  0.77208499  1
  I  I42  1  0.51645298  0.80895710  0.01225760  1
  I  I43  1  0.70180625  0.50727426  0.32332006  1
  I  I44  1  0.24499442  0.47795677  0.20998070  1
  I  I45  1  0.01644758  0.69104474  0.48773382  1
  I  I46  1  0.31520530  0.52160150  0.72793134  1
  I  I47  1  0.78479412  0.49534060  0.77920195  1
