# generated using pymatgen
data_BeGeH10C2(I3N2)2
_symmetry_space_group_name_H-M   'P 1'
_cell_length_a   9.29271967
_cell_length_b   10.46485635
_cell_length_c   8.77243541
_cell_angle_alpha   88.80072745
_cell_angle_beta   89.99958070
_cell_angle_gamma   89.99728527
_symmetry_Int_Tables_number   1
_chemical_formula_structural   BeGeH10C2(I3N2)2
_chemical_formula_sum   'Be2 Ge2 H20 C4 I12 N8'
_cell_volume   852.90594825
_cell_formula_units_Z   2
loop_
 _symmetry_equiv_pos_site_id
 _symmetry_equiv_pos_as_xyz
  1  'x, y, z'
loop_
 _atom_site_type_symbol
 _atom_site_label
 _atom_site_symmetry_multiplicity
 _atom_site_fract_x
 _atom_site_fract_y
 _atom_site_fract_z
 _atom_site_occupancy
  C  C0  1  0.49598758  0.28511237  0.49722513  1
  C  C1  1  0.99616870  0.21485445  0.00280167  1
  C  C2  1  0.50280521  0.79815487  0.49948009  1
  C  C3  1  0.00270698  0.70184001  1.00047042  1
  N  N4  1  0.58900416  0.23229391  0.59153854  1
  N  N5  1  0.41061270  0.22540919  0.40342150  1
  N  N6  1  0.08922685  0.26762757  0.90856231  1
  N  N7  1  0.91066196  0.27460876  0.09646882  1
  N  N8  1  0.59373741  0.74227391  0.59357725  1
  N  N9  1  0.41132523  0.74090870  0.40994442  1
  N  N10  1  0.09354807  0.75776771  0.90636872  1
  N  N11  1  0.91131451  0.75905749  0.09016309  1
  H  H12  1  0.48811705  0.38892933  0.49711630  1
  H  H13  1  0.64951531  0.28969710  0.66010455  1
  H  H14  1  0.60547449  0.13618594  0.60228530  1
  H  H15  1  0.34407222  0.27877960  0.33385691  1
  H  H16  1  0.40871882  0.12892151  0.39081351  1
  H  H17  1  0.98834547  0.11104241  0.00304648  1
  H  H18  1  0.14981374  0.21018306  0.84009234  1
  H  H19  1  0.10567222  0.36372764  0.89771099  1
  H  H20  1  0.84409958  0.22126382  0.16601149  1
  H  H21  1  0.90870463  0.37110756  0.10893345  1
  H  H22  1  0.50349783  0.90214418  0.49533881  1
  H  H23  1  0.65966026  0.79706331  0.65929496  1
  H  H24  1  0.60110425  0.64550026  0.60888127  1
  H  H25  1  0.34698181  0.79496148  0.33883593  1
  H  H26  1  0.40341453  0.64407061  0.40190393  1
  H  H27  1  0.00334617  0.59786991  0.00450431  1
  H  H28  1  0.15939181  0.70300106  0.84052454  1
  H  H29  1  0.10092280  0.85453881  0.89113791  1
  H  H30  1  0.84701511  0.70496326  0.16126981  1
  H  H31  1  0.90344346  0.85588349  0.09830701  1
  Be  Be32  1  0.38613538  0.99768956  0.98365114  1
  Be  Be33  1  0.88607828  0.50229932  0.51635405  1
  Ge  Ge34  1  0.97719939  0.02122092  0.50638289  1
  Ge  Ge35  1  0.47713765  0.47891033  0.99364655  1
  I  I36  1  0.52694882  0.20041403  0.00493754  1
  I  I37  1  0.21622731  0.98748124  0.19412045  1
  I  I38  1  0.75217776  0.01473045  0.30733949  1
  I  I39  1  0.02704271  0.29965683  0.49510350  1
  I  I40  1  0.28366717  0.01452622  0.72899402  1
  I  I41  1  0.81433486  0.99053381  0.76147848  1
  I  I42  1  0.52935191  0.80820686  0.00504592  1
  I  I43  1  0.71615631  0.51240387  0.30588949  1
  I  I44  1  0.25210782  0.48539445  0.19265451  1
  I  I45  1  0.02916969  0.69185707  0.49498417  1
  I  I46  1  0.31427093  0.50961673  0.73853376  1
  I  I47  1  0.78360241  0.48537799  0.77099702  1
