# generated using pymatgen
data_BeZnH10C2(I3N2)2
_symmetry_space_group_name_H-M   'P 1'
_cell_length_a   7.16604551
_cell_length_b   14.36975566
_cell_length_c   8.72398420
_cell_angle_alpha   89.93239268
_cell_angle_beta   90.00481314
_cell_angle_gamma   89.96759936
_symmetry_Int_Tables_number   1
_chemical_formula_structural   BeZnH10C2(I3N2)2
_chemical_formula_sum   'Be2 Zn2 H20 C4 I12 N8'
_cell_volume   898.34559413
_cell_formula_units_Z   2
loop_
 _symmetry_equiv_pos_site_id
 _symmetry_equiv_pos_as_xyz
  1  'x, y, z'
loop_
 _atom_site_type_symbol
 _atom_site_label
 _atom_site_symmetry_multiplicity
 _atom_site_fract_x
 _atom_site_fract_y
 _atom_site_fract_z
 _atom_site_occupancy
  C  C0  1  0.45568401  0.32663319  0.48438446  1
  C  C1  1  0.95456033  0.17365640  0.01577190  1
  C  C2  1  0.54566850  0.82656671  0.51598269  1
  C  C3  1  0.04456893  0.67311523  0.98387590  1
  N  N4  1  0.46708251  0.31690802  0.63346552  1
  N  N5  1  0.45680203  0.25817291  0.38505971  1
  N  N6  1  0.96646915  0.18310323  0.86665587  1
  N  N7  1  0.95791173  0.24220298  0.11488606  1
  N  N8  1  0.54177200  0.75782165  0.61497382  1
  N  N9  1  0.53348474  0.81732974  0.36694600  1
  N  N10  1  0.04299725  0.74184832  0.88480370  1
  N  N11  1  0.03287570  0.68253745  0.13289549  1
  H  H12  1  0.44517968  0.39748365  0.43942195  1
  H  H13  1  0.46963779  0.37505003  0.70052657  1
  H  H14  1  0.47675643  0.25413548  0.68837146  1
  H  H15  1  0.44111942  0.27189401  0.27081596  1
  H  H16  1  0.46109915  0.18990732  0.41829657  1
  H  H17  1  0.94176970  0.10295653  0.06095840  1
  H  H18  1  0.96657609  0.12486467  0.79981612  1
  H  H19  1  0.97791673  0.24572159  0.81153811  1
  H  H20  1  0.94200575  0.22877048  0.22920141  1
  H  H21  1  0.96480656  0.31038608  0.08152968  1
  H  H22  1  0.55868221  0.89723955  0.56113350  1
  H  H23  1  0.55720643  0.77091115  0.72955589  1
  H  H24  1  0.53473746  0.68971904  0.58171842  1
  H  H25  1  0.53445494  0.87548951  0.29958335  1
  H  H26  1  0.52151863  0.75483758  0.31162667  1
  H  H27  1  0.05524032  0.60231801  0.93881401  1
  H  H28  1  0.05828950  0.72856274  0.77027344  1
  H  H29  1  0.03854322  0.81001499  0.91805453  1
  H  H30  1  0.03124434  0.62441812  0.20036620  1
  H  H31  1  0.02281078  0.74515273  0.18811684  1
  Be  Be32  1  0.47254866  0.03021091  0.96733040  1
  Be  Be33  1  0.97343322  0.46976457  0.53246649  1
  Zn  Zn34  1  0.02983344  0.97127584  0.46333074  1
  Zn  Zn35  1  0.52891359  0.52882612  0.03609107  1
  I  I36  1  0.46523597  0.19083806  0.98515743  1
  I  I37  1  0.24123858  0.94930157  0.09916713  1
  I  I38  1  0.74948398  0.05115031  0.34720897  1
  I  I39  1  0.96568491  0.30915214  0.51511180  1
  I  I40  1  0.27693851  0.05784876  0.61338992  1
  I  I41  1  0.72766507  0.95524748  0.85932514  1
  I  I42  1  0.53660043  0.70436564  0.01453273  1
  I  I43  1  0.74209237  0.55084976  0.40082294  1
  I  I44  1  0.24935675  0.44913619  0.15345444  1
  I  I45  1  0.03697192  0.79571779  0.48540125  1
  I  I46  1  0.22813013  0.54452034  0.64129320  1
  I  I47  1  0.77641977  0.44212844  0.88660091  1
