# generated using pymatgen
data_BeNiH10C2(I3N2)2
_symmetry_space_group_name_H-M   'P 1'
_cell_length_a   7.53009455
_cell_length_b   11.74792441
_cell_length_c   9.06356483
_cell_angle_alpha   90.40265020
_cell_angle_beta   90.00995123
_cell_angle_gamma   89.89464463
_symmetry_Int_Tables_number   1
_chemical_formula_structural   BeNiH10C2(I3N2)2
_chemical_formula_sum   'Be2 Ni2 H20 C4 I12 N8'
_cell_volume   801.76880423
_cell_formula_units_Z   2
loop_
 _symmetry_equiv_pos_site_id
 _symmetry_equiv_pos_as_xyz
  1  'x, y, z'
loop_
 _atom_site_type_symbol
 _atom_site_label
 _atom_site_symmetry_multiplicity
 _atom_site_fract_x
 _atom_site_fract_y
 _atom_site_fract_z
 _atom_site_occupancy
  C  C0  1  0.48105749  0.29010830  0.48609453  1
  C  C1  1  0.97970172  0.20955148  0.01402514  1
  C  C2  1  0.53680288  0.79055916  0.52195510  1
  C  C3  1  0.03601350  0.70944569  0.97773112  1
  N  N4  1  0.52520237  0.26516347  0.62195880  1
  N  N5  1  0.41993802  0.21733627  0.38816773  1
  N  N6  1  0.02528418  0.23368743  0.87828653  1
  N  N7  1  0.92173763  0.28341795  0.11206117  1
  N  N8  1  0.55881093  0.72368916  0.63591805  1
  N  N9  1  0.46958519  0.75885983  0.39469137  1
  N  N10  1  0.06000502  0.77605344  0.86385326  1
  N  N11  1  0.96941582  0.74191638  0.10494647  1
  H  H12  1  0.49722650  0.37821822  0.45099583  1
  H  H13  1  0.57527692  0.32760039  0.68974858  1
  H  H14  1  0.51517964  0.18448844  0.66261140  1
  H  H15  1  0.39145323  0.24418890  0.28343963  1
  H  H16  1  0.39648904  0.13389867  0.41254199  1
  H  H17  1  0.99168249  0.12111233  0.04893797  1
  H  H18  1  0.07306064  0.17036324  0.81057630  1
  H  H19  1  0.01945681  0.31457001  0.83772786  1
  H  H20  1  0.89187418  0.25698800  0.21667254  1
  H  H21  1  0.90185998  0.36730492  0.08789331  1
  H  H22  1  0.57716818  0.87921471  0.53403994  1
  H  H23  1  0.60760874  0.75544283  0.73288359  1
  H  H24  1  0.52423925  0.63967010  0.63432407  1
  H  H25  1  0.45349717  0.81707792  0.31244883  1
  H  H26  1  0.42491574  0.67823710  0.37313051  1
  H  H27  1  0.07384947  0.62024722  0.96551097  1
  H  H28  1  0.10815110  0.74365609  0.76695864  1
  H  H29  1  0.02828976  0.86059644  0.86559796  1
  H  H30  1  0.95166962  0.68384226  0.18708786  1
  H  H31  1  0.92684363  0.82308293  0.12656493  1
  Be  Be32  1  0.56340126  0.06175827  0.05053675  1
  Be  Be33  1  0.06404616  0.43837023  0.44948729  1
  Ni  Ni34  1  0.01339726  0.02360082  0.46362707  1
  Ni  Ni35  1  0.51348415  0.47638714  0.03632251  1
  I  I36  1  0.45982604  0.26105090  0.00853468  1
  I  I37  1  0.29340845  0.97572978  0.12591872  1
  I  I38  1  0.75010405  0.00656761  0.27176209  1
  I  I39  1  0.96025280  0.23923855  0.49154995  1
  I  I40  1  0.24915697  0.01673300  0.65591978  1
  I  I41  1  0.70858367  0.99457358  0.83584496  1
  I  I42  1  0.50410592  0.68804959  0.02084263  1
  I  I43  1  0.79412250  0.52496683  0.37386906  1
  I  I44  1  0.25131826  0.49439576  0.22921331  1
  I  I45  1  0.00406570  0.81189301  0.47891585  1
  I  I46  1  0.20868506  0.50473788  0.66476862  1
  I  I47  1  0.74871426  0.48242076  0.84360953  1
