# generated using pymatgen
data_CaBeH10C2(I3N2)2
_symmetry_space_group_name_H-M   'P 1'
_cell_length_a   9.42956016
_cell_length_b   10.31459737
_cell_length_c   8.77437138
_cell_angle_alpha   88.93355511
_cell_angle_beta   90.00119522
_cell_angle_gamma   89.99857785
_symmetry_Int_Tables_number   1
_chemical_formula_structural   CaBeH10C2(I3N2)2
_chemical_formula_sum   'Ca2 Be2 H20 C4 I12 N8'
_cell_volume   853.26610574
_cell_formula_units_Z   2
loop_
 _symmetry_equiv_pos_site_id
 _symmetry_equiv_pos_as_xyz
  1  'x, y, z'
loop_
 _atom_site_type_symbol
 _atom_site_label
 _atom_site_symmetry_multiplicity
 _atom_site_fract_x
 _atom_site_fract_y
 _atom_site_fract_z
 _atom_site_occupancy
  C  C0  1  0.49608084  0.26757981  0.50603814  1
  C  C1  1  0.99611847  0.23242779  0.99395061  1
  C  C2  1  0.50276567  0.80587991  0.48319575  1
  C  C3  1  0.00275930  0.69412442  0.01682713  1
  N  N4  1  0.60256096  0.21820072  0.58373609  1
  N  N5  1  0.43237249  0.21242794  0.39084977  1
  N  N6  1  0.10259796  0.28183405  0.91628118  1
  N  N7  1  0.93240627  0.28754375  0.10916182  1
  N  N8  1  0.57843952  0.75741792  0.59590828  1
  N  N9  1  0.39654911  0.74742929  0.41639506  1
  N  N10  1  0.07843046  0.74256675  0.90410087  1
  N  N11  1  0.89654178  0.75259140  0.08360714  1
  H  H12  1  0.45371689  0.36063357  0.54291248  1
  H  H13  1  0.64397546  0.26815936  0.67271056  1
  H  H14  1  0.65218663  0.13381290  0.55506531  1
  H  H15  1  0.35794301  0.26538212  0.33097075  1
  H  H16  1  0.47201973  0.13143186  0.34119831  1
  H  H17  1  0.95376207  0.13938625  0.95703137  1
  H  H18  1  0.14401078  0.23190736  0.82728721  1
  H  H19  1  0.15221916  0.36620496  0.94500322  1
  H  H20  1  0.85797399  0.23456976  0.16902026  1
  H  H21  1  0.97204508  0.36852868  0.15884878  1
  H  H22  1  0.53398567  0.90109470  0.43834120  1
  H  H23  1  0.65686949  0.81233546  0.64444072  1
  H  H24  1  0.55363027  0.67005544  0.64640091  1
  H  H25  1  0.34691839  0.79167786  0.32600417  1
  H  H26  1  0.36136137  0.65747806  0.44967964  1
  H  H27  1  0.03398501  0.59891899  0.06170514  1
  H  H28  1  0.15686200  0.68763778  0.85558362  1
  H  H29  1  0.05361813  0.82991861  0.85358671  1
  H  H30  1  0.84691780  0.70836107  0.17401469  1
  H  H31  1  0.86134872  0.84253618  0.05030055  1
  Be  Be32  1  0.37261639  0.99933682  0.97717365  1
  Be  Be33  1  0.87262247  0.50066288  0.52281249  1
  Ca  Ca34  1  0.00736502  0.99997860  0.49642824  1
  Ca  Ca35  1  0.50738125  0.50002750  0.00355691  1
  I  I36  1  0.51519460  0.19391443  0.98930513  1
  I  I37  1  0.19498976  0.99336677  0.18162277  1
  I  I38  1  0.75714136  0.02079192  0.28880093  1
  I  I39  1  0.01522547  0.30608935  0.51069448  1
  I  I40  1  0.27737013  0.00486519  0.71539665  1
  I  I41  1  0.82032418  0.97941425  0.77101205  1
  I  I42  1  0.51347151  0.80591678  0.01132168  1
  I  I43  1  0.69498896  0.50662080  0.31837257  1
  I  I44  1  0.25717272  0.47921599  0.21120170  1
  I  I45  1  0.01346564  0.69408372  0.48866863  1
  I  I46  1  0.32032759  0.52059519  0.72898048  1
  I  I47  1  0.77738983  0.49512810  0.78459899  1
