# generated using pymatgen
data_BeSiH10C2(I3N2)2
_symmetry_space_group_name_H-M   'P 1'
_cell_length_a   8.68459160
_cell_length_b   10.73676245
_cell_length_c   9.18799690
_cell_angle_alpha   88.93885194
_cell_angle_beta   89.99751555
_cell_angle_gamma   90.01138156
_symmetry_Int_Tables_number   1
_chemical_formula_structural   BeSiH10C2(I3N2)2
_chemical_formula_sum   'Be2 Si2 H20 C4 I12 N8'
_cell_volume   856.58228397
_cell_formula_units_Z   2
loop_
 _symmetry_equiv_pos_site_id
 _symmetry_equiv_pos_as_xyz
  1  'x, y, z'
loop_
 _atom_site_type_symbol
 _atom_site_label
 _atom_site_symmetry_multiplicity
 _atom_site_fract_x
 _atom_site_fract_y
 _atom_site_fract_z
 _atom_site_occupancy
  C  C0  1  0.49267707  0.29560918  0.49238769  1
  C  C1  1  0.99294753  0.20451247  0.00762019  1
  C  C2  1  0.50325309  0.78720060  0.49976413  1
  C  C3  1  0.00341193  0.71263569  1.00026259  1
  N  N4  1  0.58661837  0.23976308  0.58421938  1
  N  N5  1  0.40399969  0.24056950  0.39779566  1
  N  N6  1  0.08697910  0.26041419  0.91588112  1
  N  N7  1  0.90407855  0.25951994  0.10206325  1
  N  N8  1  0.59911425  0.73172897  0.59004268  1
  N  N9  1  0.40956437  0.73283707  0.40870350  1
  N  N10  1  0.09932917  0.76800642  0.90993015  1
  N  N11  1  0.90970289  0.76709157  0.09122472  1
  H  H12  1  0.48741287  0.39681697  0.49555067  1
  H  H13  1  0.65228511  0.29203087  0.65248198  1
  H  H14  1  0.60165178  0.14548921  0.59018173  1
  H  H15  1  0.33264377  0.29400947  0.33319154  1
  H  H16  1  0.39764393  0.14611461  0.38762247  1
  H  H17  1  0.98781904  0.10330261  0.00451821  1
  H  H18  1  0.15283975  0.20817746  0.84775912  1
  H  H19  1  0.10194840  0.35470065  0.90986276  1
  H  H20  1  0.83264497  0.20605374  0.16659609  1
  H  H21  1  0.89759699  0.35397227  0.11215187  1
  H  H22  1  0.50137084  0.88865065  0.50020239  1
  H  H23  1  0.66891575  0.78510398  0.65338361  1
  H  H24  1  0.61138863  0.63752202  0.59966218  1
  H  H25  1  0.33791567  0.78748425  0.34581236  1
  H  H26  1  0.39895984  0.63885016  0.39909030  1
  H  H27  1  0.00148827  0.61118171  -0.00000721  1
  H  H28  1  0.16911828  0.71454159  0.84668985  1
  H  H29  1  0.11169891  0.86220254  0.90019045  1
  H  H30  1  0.83804805  0.71250461  0.15420403  1
  H  H31  1  0.89915539  0.86109433  0.10066608  1
  Be  Be32  1  0.48593107  0.99504061  0.11541174  1
  Be  Be33  1  0.98595737  0.50489401  0.38469331  1
  Si  Si34  1  0.00943921  0.03661184  0.52149223  1
  Si  Si35  1  0.50942357  0.46354170  0.97854346  1
  I  I36  1  0.49923786  0.20064108  0.96799903  1
  I  I37  1  0.22957487  0.98843406  0.21769151  1
  I  I38  1  0.69960402  0.01319443  0.28252319  1
  I  I39  1  0.99905511  0.29949299  0.53225924  1
  I  I40  1  0.25889338  0.01704144  0.68245095  1
  I  I41  1  0.81604648  0.99432498  0.74036321  1
  I  I42  1  0.51425046  0.81645173  0.97240201  1
  I  I43  1  0.72965431  0.51146419  0.28223508  1
  I  I44  1  0.19971460  0.48681352  0.21762513  1
  I  I45  1  0.01416369  0.68361053  0.52754145  1
  I  I46  1  0.31600985  0.50571709  0.75963186  1
  I  I47  1  0.75884121  0.48309639  0.81753579  1
