# generated using pymatgen
data_MgBeH10C2(I3N2)2
_symmetry_space_group_name_H-M   'P 1'
_cell_length_a   7.15831389
_cell_length_b   14.07074754
_cell_length_c   8.82441752
_cell_angle_alpha   90.14577825
_cell_angle_beta   90.05429047
_cell_angle_gamma   89.91074451
_symmetry_Int_Tables_number   1
_chemical_formula_structural   MgBeH10C2(I3N2)2
_chemical_formula_sum   'Mg2 Be2 H20 C4 I12 N8'
_cell_volume   888.81593256
_cell_formula_units_Z   2
loop_
 _symmetry_equiv_pos_site_id
 _symmetry_equiv_pos_as_xyz
  1  'x, y, z'
loop_
 _atom_site_type_symbol
 _atom_site_label
 _atom_site_symmetry_multiplicity
 _atom_site_fract_x
 _atom_site_fract_y
 _atom_site_fract_z
 _atom_site_occupancy
  C  C0  1  0.48684914  0.30542408  0.50123989  1
  C  C1  1  0.98558543  0.19410860  -0.00077415  1
  C  C2  1  0.54327802  0.81184618  0.55390621  1
  C  C3  1  0.04189980  0.68813879  0.94543327  1
  N  N4  1  0.48811987  0.28985909  0.64795349  1
  N  N5  1  0.43447532  0.24239680  0.40041189  1
  N  N6  1  -0.01251448  0.20958147  0.85250397  1
  N  N7  1  0.93587473  0.25775046  0.10000212  1
  N  N8  1  0.52831629  0.74200163  0.65144875  1
  N  N9  1  0.49784947  0.80571772  0.41021840  1
  N  N10  1  0.02945143  0.75787828  0.84740726  1
  N  N11  1  0.99627925  0.69511991  0.08890479  1
  H  H12  1  0.52927179  0.37579496  0.46204722  1
  H  H13  1  0.53544730  0.34154018  0.72032203  1
  H  H14  1  0.45414693  0.22547345  0.69355856  1
  H  H15  1  0.43525522  0.25696529  0.28654758  1
  H  H16  1  0.38815723  0.17664282  0.43370985  1
  H  H17  1  1.02518682  0.12324779  0.03848629  1
  H  H18  1  0.03301969  0.15735446  0.78031679  1
  H  H19  1  0.95624643  0.27434084  0.80671759  1
  H  H20  1  0.93588118  0.24309921  0.21382993  1
  H  H21  1  0.89194264  0.32401370  0.06670303  1
  H  H22  1  0.59374072  0.88032269  0.59575148  1
  H  H23  1  0.55952890  0.75242116  0.76377924  1
  H  H24  1  0.47731795  0.67636481  0.62160573  1
  H  H25  1  0.51988323  0.86212365  0.34017923  1
  H  H26  1  0.45035115  0.74490047  0.36008450  1
  H  H27  1  0.09020936  0.61905921  0.90417714  1
  H  H28  1  0.06072934  0.74689805  0.73527233  1
  H  H29  1  -0.01949727  0.82404450  0.87678129  1
  H  H30  1  1.01605256  0.63872296  0.15949542  1
  H  H31  1  0.95077734  0.75657949  0.13839804  1
  Be  Be32  1  0.55834447  0.04406485  0.07123348  1
  Be  Be33  1  0.05836921  0.45619335  0.42960288  1
  Mg  Mg34  1  0.07348376  0.96575055  0.38366941  1
  Mg  Mg35  1  0.57278037  0.53406349  0.11644166  1
  I  I36  1  0.47145059  0.20245272  0.01281034  1
  I  I37  1  0.25547972  0.95914588  0.10720717  1
  I  I38  1  0.72184036  0.04329698  0.32354396  1
  I  I39  1  0.97167818  0.29783499  0.48781444  1
  I  I40  1  0.25400735  0.04195496  0.62047144  1
  I  I41  1  0.73689152  0.97020917  0.87920155  1
  I  I42  1  0.50854466  0.71534346  0.04645347  1
  I  I43  1  0.75519318  0.54129040  0.39305475  1
  I  I44  1  0.22151767  0.45713256  0.17743833  1
  I  I45  1  0.01024608  0.78434698  0.45274713  1
  I  I46  1  0.23707848  0.52945177  0.62202866  1
  I  I47  1  0.75400096  0.45779816  0.87996691  1
