# generated using pymatgen
data_BeH10C3(I3N2)2
_symmetry_space_group_name_H-M   'P 1'
_cell_length_a   8.72856263
_cell_length_b   11.62129494
_cell_length_c   8.32622258
_cell_angle_alpha   91.16686392
_cell_angle_beta   89.99906469
_cell_angle_gamma   89.99305838
_symmetry_Int_Tables_number   1
_chemical_formula_structural   BeH10C3(I3N2)2
_chemical_formula_sum   'Be2 H20 C6 I12 N8'
_cell_volume   844.41356094
_cell_formula_units_Z   2
loop_
 _symmetry_equiv_pos_site_id
 _symmetry_equiv_pos_as_xyz
  1  'x, y, z'
loop_
 _atom_site_type_symbol
 _atom_site_label
 _atom_site_symmetry_multiplicity
 _atom_site_fract_x
 _atom_site_fract_y
 _atom_site_fract_z
 _atom_site_occupancy
  C  C0  1  0.49534290  0.29067623  0.49729058  1
  C  C1  1  0.99539957  0.20926584  0.00270375  1
  C  C2  1  0.49808329  0.78867965  0.50875134  1
  C  C3  1  0.99807422  0.71131062  0.99119859  1
  N  N4  1  0.59597660  0.23829083  0.58708797  1
  N  N5  1  0.39609668  0.24014004  0.40125295  1
  N  N6  1  0.09610510  0.26164024  0.91297349  1
  N  N7  1  0.89615075  0.25982252  0.09872895  1
  N  N8  1  0.59369702  0.73585694  0.60328282  1
  N  N9  1  0.40015049  0.73825440  0.41045498  1
  N  N10  1  0.09369550  0.76413297  0.89670769  1
  N  N11  1  0.90018613  0.76175467  0.08956979  1
  H  H12  1  0.49427271  0.38448474  0.50298878  1
  H  H13  1  0.66497153  0.28716149  0.66077969  1
  H  H14  1  0.60267447  0.15103105  0.59667957  1
  H  H15  1  0.32435101  0.29041513  0.33532807  1
  H  H16  1  0.38999876  0.15297092  0.38282740  1
  H  H17  1  0.99428509  0.11547457  0.99693480  1
  H  H18  1  0.16507233  0.21274324  0.83926672  1
  H  H19  1  0.10286228  0.34889839  0.90343649  1
  H  H20  1  0.82439294  0.20954956  0.16461874  1
  H  H21  1  0.89008039  0.34698303  0.11721746  1
  H  H22  1  0.50013529  0.88252394  0.51197843  1
  H  H23  1  0.66399266  0.78501732  0.67527672  1
  H  H24  1  0.59843747  0.64866088  0.61613795  1
  H  H25  1  0.33328719  0.78835431  0.33909750  1
  H  H26  1  0.40023223  0.65158140  0.38745030  1
  H  H27  1  0.00005757  0.61747728  0.98787155  1
  H  H28  1  0.16393902  0.71496300  0.82465816  1
  H  H29  1  0.09847757  0.85132590  0.88392189  1
  H  H30  1  0.83331789  0.71165105  0.16090298  1
  H  H31  1  0.90034481  0.84841986  0.11267636  1
  Be  Be32  1  0.62638713  0.93502583  0.01440538  1
  Be  Be33  1  0.12631342  0.56507748  0.48568697  1
  C  C34  1  0.05962200  0.03176065  0.50266363  1
  C  C35  1  0.55962612  0.46830182  0.99724793  1
  I  I36  1  0.49972122  0.28051299  0.99725853  1
  I  I37  1  0.18564772  0.99183023  0.26255502  1
  I  I38  1  0.69363436  0.01356695  0.26272931  1
  I  I39  1  0.99968575  0.21955759  0.50279014  1
  I  I40  1  0.25161275  0.01652233  0.69409397  1
  I  I41  1  0.76141272  0.98834198  0.78760154  1
  I  I42  1  0.47002526  0.77905259  0.00057484  1
  I  I43  1  0.68560629  0.50825447  0.23736578  1
  I  I44  1  0.19348745  0.48644797  0.23738405  1
  I  I45  1  0.97010819  0.72117404  0.49943116  1
  I  I46  1  0.26136693  0.51168304  0.71245878  1
  I  I47  1  0.75162057  0.48344101  0.80580529  1
