# generated using pymatgen
data_AlH12C2(I2N)3
_symmetry_space_group_name_H-M   'P 1'
_cell_length_a   10.11661069
_cell_length_b   10.82349343
_cell_length_c   8.01208753
_cell_angle_alpha   103.17615221
_cell_angle_beta   84.15423934
_cell_angle_gamma   89.83496310
_symmetry_Int_Tables_number   1
_chemical_formula_structural   AlH12C2(I2N)3
_chemical_formula_sum   'Al2 H24 C4 I12 N6'
_cell_volume   849.45356762
_cell_formula_units_Z   2
loop_
 _symmetry_equiv_pos_site_id
 _symmetry_equiv_pos_as_xyz
  1  'x, y, z'
loop_
 _atom_site_type_symbol
 _atom_site_label
 _atom_site_symmetry_multiplicity
 _atom_site_fract_x
 _atom_site_fract_y
 _atom_site_fract_z
 _atom_site_occupancy
  C  C0  1  0.59271205  0.36465035  0.53248256  1
  C  C1  1  0.98111691  0.16783597  0.07673828  1
  C  C2  1  0.49654609  0.72570113  0.41509230  1
  C  C3  1  0.95811754  0.78237751  0.98157883  1
  N  N4  1  0.59359592  0.34901279  0.71236404  1
  N  N5  1  0.01992421  0.19551654  0.90799115  1
  N  N6  1  0.43380481  0.65004043  0.26665691  1
  N  N7  1  0.86855476  0.78628571  0.14218757  1
  H  H8  1  0.68803236  0.33049805  0.45905057  1
  H  H9  1  0.51011887  0.31093581  0.47572702  1
  H  H10  1  0.57773801  0.46553489  0.53735742  1
  H  H11  1  0.60163696  0.25407126  0.71630049  1
  H  H12  1  0.67092741  0.39572422  0.77529243  1
  H  H13  1  0.50531859  0.38494464  0.78553221  1
  H  H14  1  0.05361364  0.10005959  0.10137587  1
  H  H15  1  0.88333511  0.12424236  0.07473127  1
  H  H16  1  0.97493278  0.25196517  0.18513422  1
  H  H17  1  0.98885310  0.05917109  0.76370797  1
  H  H18  1  0.11678576  0.22280775  0.89745448  1
  H  H19  1  0.96384669  0.26954289  0.88954382  1
  H  H20  1  0.42041798  0.76355313  0.52198799  1
  H  H21  1  0.56673873  0.66435353  0.45616403  1
  H  H22  1  0.55024698  0.80443325  0.37655582  1
  H  H23  1  0.38861996  0.70987759  0.20285414  1
  H  H24  1  0.35695831  0.58789629  0.30001475  1
  H  H25  1  0.50715400  0.59459916  0.18088848  1
  H  H26  1  0.90197084  0.74832253  0.87145540  1
  H  H27  1  0.99154684  0.87831762  0.98190114  1
  H  H28  1  0.04232495  0.71741700  0.97644244  1
  H  H29  1  0.79286582  0.85429556  0.15696701  1
  H  H30  1  0.82464841  0.69776033  0.13909170  1
  H  H31  1  0.91871110  0.80908399  0.25086001  1
  N  N32  1  0.94148867  0.97020965  0.71349464  1
  N  N33  1  0.23207335  0.47591932  0.30084854  1
  Al  Al34  1  0.48873187  0.93845003  0.98519313  1
  Al  Al35  1  0.16850007  0.42559687  0.50860660  1
  I  I36  1  0.33957658  0.32595383  0.11471819  1
  I  I37  1  0.26834773  0.88707860  0.13129003  1
  I  I38  1  0.62523234  0.06347528  0.21704397  1
  I  I39  1  0.20779649  0.19276344  0.49751509  1
  I  I40  1  0.43187995  0.07002106  0.77402704  1
  I  I41  1  0.81861881  0.02052868  0.54151188  1
  I  I42  1  0.62588637  0.74086764  0.83466904  1
  I  I43  1  0.73621464  0.47844441  0.11320203  1
  I  I44  1  0.05246184  0.51239813  0.19032803  1
  I  I45  1  0.09660532  0.84365837  0.58833119  1
  I  I46  1  0.29979135  0.56107112  0.73970286  1
  I  I47  1  0.92510283  0.47281371  0.63833201  1
