# generated using pymatgen
data_BeBH10C2(I3N2)2
_symmetry_space_group_name_H-M   'P 1'
_cell_length_a   8.95306491
_cell_length_b   11.13179838
_cell_length_c   8.50270332
_cell_angle_alpha   89.42993590
_cell_angle_beta   89.76271498
_cell_angle_gamma   90.86576230
_symmetry_Int_Tables_number   1
_chemical_formula_structural   BeBH10C2(I3N2)2
_chemical_formula_sum   'Be2 B2 H20 C4 I12 N8'
_cell_volume   847.26450336
_cell_formula_units_Z   2
loop_
 _symmetry_equiv_pos_site_id
 _symmetry_equiv_pos_as_xyz
  1  'x, y, z'
loop_
 _atom_site_type_symbol
 _atom_site_label
 _atom_site_symmetry_multiplicity
 _atom_site_fract_x
 _atom_site_fract_y
 _atom_site_fract_z
 _atom_site_occupancy
  C  C0  1  0.49319508  0.28518784  0.49393969  1
  C  C1  1  0.00125499  0.21504605  0.00104850  1
  C  C2  1  0.50094555  0.78809427  0.49813346  1
  C  C3  1  0.01772554  0.69751719  0.99823113  1
  N  N4  1  0.57214165  0.23472516  0.60582436  1
  N  N5  1  0.39802826  0.22914017  0.40266223  1
  N  N6  1  0.10621998  0.25709173  0.90718262  1
  N  N7  1  0.90817685  0.27981159  0.08300235  1
  N  N8  1  0.58178843  0.73224234  0.60419071  1
  N  N9  1  0.41522452  0.73628688  0.39367219  1
  N  N10  1  0.12097461  0.74777016  0.90885971  1
  N  N11  1  0.92933255  0.75418971  0.09506171  1
  H  H12  1  0.51031595  0.38124204  0.47286116  1
  H  H13  1  0.63509845  0.28911634  0.67722169  1
  H  H14  1  0.54906198  0.14923858  0.64499599  1
  H  H15  1  0.34804978  0.27766255  0.31461807  1
  H  H16  1  0.37625010  0.13881031  0.40787939  1
  H  H17  1  0.99095595  0.11772699  0.01348051  1
  H  H18  1  0.17403554  0.19788576  0.85017023  1
  H  H19  1  0.12663075  0.34685991  0.88700285  1
  H  H20  1  0.82422593  0.23768643  0.14467639  1
  H  H21  1  0.91014282  0.37141660  0.08347410  1
  H  H22  1  0.50654085  0.88597537  0.49652435  1
  H  H23  1  0.63397991  0.78136876  0.68941069  1
  H  H24  1  0.57122822  0.64184045  0.62535774  1
  H  H25  1  0.35705551  0.78927950  0.31666459  1
  H  H26  1  0.40206278  0.64521240  0.38305233  1
  H  H27  1  0.00255369  0.60050029  0.98981219  1
  H  H28  1  0.18228465  0.69436373  0.83617685  1
  H  H29  1  0.14256376  0.83822843  0.90483957  1
  H  H30  1  0.85551106  0.70488134  0.16303269  1
  H  H31  1  0.94384108  0.84308447  0.11951113  1
  Be  Be32  1  0.40672555  0.00733518  0.98581704  1
  Be  Be33  1  0.86060520  0.56917842  0.51739222  1
  B  B34  1  0.87389094  0.08646916  0.51477111  1
  B  B35  1  0.45444644  0.46718005  0.99758082  1
  I  I36  1  0.52240167  0.20536556  0.00942567  1
  I  I37  1  0.22036061  0.98314743  0.19630582  1
  I  I38  1  0.76119570  0.01588802  0.31313193  1
  I  I39  1  0.01526908  0.23905718  0.49339676  1
  I  I40  1  0.29193593  0.00528890  0.72436182  1
  I  I41  1  0.82245518  0.00064167  0.73448132  1
  I  I42  1  0.56167860  0.83359244  0.00797219  1
  I  I43  1  0.72650953  0.51637651  0.29342112  1
  I  I44  1  0.25064420  0.47821785  0.19134358  1
  I  I45  1  0.03031500  0.72215586  0.50085788  1
  I  I46  1  0.31940915  0.49797197  0.74843145  1
  I  I47  1  0.79477980  0.48271341  0.75884286  1
