# generated using pymatgen
data_BiBH10C2(I3N2)2
_symmetry_space_group_name_H-M   'P 1'
_cell_length_a   8.50967514
_cell_length_b   11.73300483
_cell_length_c   8.63621853
_cell_angle_alpha   91.24652263
_cell_angle_beta   90.00781122
_cell_angle_gamma   90.00061064
_symmetry_Int_Tables_number   1
_chemical_formula_structural   BiBH10C2(I3N2)2
_chemical_formula_sum   'Bi2 B2 H20 C4 I12 N8'
_cell_volume   862.07105025
_cell_formula_units_Z   2
loop_
 _symmetry_equiv_pos_site_id
 _symmetry_equiv_pos_as_xyz
  1  'x, y, z'
loop_
 _atom_site_type_symbol
 _atom_site_label
 _atom_site_symmetry_multiplicity
 _atom_site_fract_x
 _atom_site_fract_y
 _atom_site_fract_z
 _atom_site_occupancy
  C  C0  1  0.49673394  0.28972383  0.49837654  1
  C  C1  1  0.99676919  0.21027984  0.00164577  1
  C  C2  1  0.50676550  0.78862433  0.50348782  1
  C  C3  1  0.00668222  0.71136142  0.99650070  1
  N  N4  1  0.59329350  0.23982083  0.59369916  1
  N  N5  1  0.40185669  0.23748596  0.40053587  1
  N  N6  1  0.09338037  0.26018616  0.90636463  1
  N  N7  1  0.90190573  0.26251625  0.09943970  1
  N  N8  1  0.59996602  0.73734282  0.60062544  1
  N  N9  1  0.40845723  0.73801884  0.40721005  1
  N  N10  1  0.09987338  0.76266463  0.89939997  1
  N  N11  1  0.90833498  0.76189608  0.09272565  1
  H  H12  1  0.49497599  0.38270838  0.50077614  1
  H  H13  1  0.66439032  0.28931071  0.66304710  1
  H  H14  1  0.60191072  0.15343257  0.60397578  1
  H  H15  1  0.32845409  0.28482703  0.33398024  1
  H  H16  1  0.39504898  0.15089951  0.38776817  1
  H  H17  1  0.99499547  0.11729841  -0.00079160  1
  H  H18  1  0.16445752  0.21069243  0.83704246  1
  H  H19  1  0.10200677  0.34657187  0.89611386  1
  H  H20  1  0.82845010  0.21517372  0.16594839  1
  H  H21  1  0.89507307  0.34910080  0.11222009  1
  H  H22  1  0.51173594  0.88153426  0.50248881  1
  H  H23  1  0.67156282  0.78673471  0.66981097  1
  H  H24  1  0.60696697  0.65086887  0.61112193  1
  H  H25  1  0.33958766  0.78693367  0.33805110  1
  H  H26  1  0.39141325  0.65183057  0.40104806  1
  H  H27  1  0.01172489  0.61843642  0.99748526  1
  H  H28  1  0.17151793  0.71328336  0.83023868  1
  H  H29  1  0.10682694  0.84912920  0.88890301  1
  H  H30  1  0.83948703  0.71296593  0.16184803  1
  H  H31  1  0.89121651  0.84809987  0.09890066  1
  B  B32  1  0.48891079  0.96730204  0.06734087  1
  B  B33  1  0.98907439  0.53276716  0.43262170  1
  Bi  Bi34  1  0.99943973  0.00999522  0.50309553  1
  Bi  Bi35  1  0.49944578  0.49007707  0.99693629  1
  I  I36  1  0.49670137  0.23982877  0.99853998  1
  I  I37  1  0.23479863  0.98667069  0.20659319  1
  I  I38  1  0.70440409  0.00900270  0.25838855  1
  I  I39  1  0.99669154  0.26024057  0.50153385  1
  I  I40  1  0.28200157  0.01089468  0.71555281  1
  I  I41  1  0.77635859  0.99006895  0.77287041  1
  I  I42  1  0.50435878  0.77329784  0.00152458  1
  I  I43  1  0.73487928  0.51333345  0.29343657  1
  I  I44  1  0.20444073  0.49102461  0.24160821  1
  I  I45  1  0.00444299  0.72675695  0.49842607  1
  I  I46  1  0.27628294  0.50993222  0.72716340  1
  I  I47  1  0.78196642  0.48911679  0.78448436  1
