# generated using pymatgen
data_TlBH10C2(I3N2)2
_symmetry_space_group_name_H-M   'P 1'
_cell_length_a   9.31729045
_cell_length_b   10.42786021
_cell_length_c   9.18839210
_cell_angle_alpha   88.27476177
_cell_angle_beta   90.00110493
_cell_angle_gamma   90.00037027
_symmetry_Int_Tables_number   1
_chemical_formula_structural   TlBH10C2(I3N2)2
_chemical_formula_sum   'Tl2 B2 H20 C4 I12 N8'
_cell_volume   892.33400229
_cell_formula_units_Z   2
loop_
 _symmetry_equiv_pos_site_id
 _symmetry_equiv_pos_as_xyz
  1  'x, y, z'
loop_
 _atom_site_type_symbol
 _atom_site_label
 _atom_site_symmetry_multiplicity
 _atom_site_fract_x
 _atom_site_fract_y
 _atom_site_fract_z
 _atom_site_occupancy
  C  C0  1  0.48550342  0.26897555  0.50684249  1
  C  C1  1  0.98551590  0.23103346  0.99316880  1
  C  C2  1  0.50098142  0.80252310  0.48434989  1
  C  C3  1  0.00098260  0.69747766  0.01564422  1
  N  N4  1  0.59334654  0.22165948  0.58304253  1
  N  N5  1  0.43188593  0.21865711  0.38896769  1
  N  N6  1  0.09337784  0.27836676  0.91697966  1
  N  N7  1  0.93190387  0.28132867  0.11105334  1
  N  N8  1  0.56890496  0.75741561  0.59973055  1
  N  N9  1  0.39879931  0.74259987  0.41440505  1
  N  N10  1  0.06888351  0.74258090  0.90024817  1
  N  N11  1  0.89879411  0.75739555  0.08559269  1
  H  H12  1  0.43402196  0.35567041  0.54681361  1
  H  H13  1  0.62713707  0.26760855  0.67334094  1
  H  H14  1  0.65115753  0.14330010  0.55237612  1
  H  H15  1  0.35687474  0.27104343  0.33031330  1
  H  H16  1  0.48222577  0.14467938  0.33876562  1
  H  H17  1  0.93403586  0.14435197  0.95316207  1
  H  H18  1  0.12715817  0.23243759  0.82668000  1
  H  H19  1  0.15118453  0.35670964  0.94768745  1
  H  H20  1  0.85688531  0.22893420  0.16968429  1
  H  H21  1  0.98223889  0.35529616  0.16127247  1
  H  H22  1  0.53486307  0.89617058  0.43994660  1
  H  H23  1  0.64547563  0.81299939  0.64847536  1
  H  H24  1  0.53935451  0.67220671  0.65018069  1
  H  H25  1  0.35649046  0.78387759  0.32184368  1
  H  H26  1  0.36233982  0.65342205  0.44559269  1
  H  H27  1  0.03489045  0.60385251  0.06004876  1
  H  H28  1  0.14546523  0.68700812  0.85149975  1
  H  H29  1  0.03931061  0.82779602  0.84977741  1
  H  H30  1  0.85651682  0.71612372  0.17814657  1
  H  H31  1  0.86231626  0.84656434  0.05438849  1
  B  B32  1  0.38681638  0.00027297  0.97216881  1
  B  B33  1  0.88682441  0.49972039  0.52784189  1
  Tl  Tl34  1  0.02391058  0.99905547  0.48649375  1
  Tl  Tl35  1  0.52391832  0.50094878  0.01352015  1
  I  I36  1  0.52018445  0.17998096  0.98711350  1
  I  I37  1  0.21700489  0.99598161  0.14891109  1
  I  I38  1  0.74959419  0.02365974  0.29405603  1
  I  I39  1  0.02020332  0.32002038  0.51290745  1
  I  I40  1  0.29140179  0.00246744  0.74616331  1
  I  I41  1  0.82171738  0.97881283  0.75901577  1
  I  I42  1  0.51992799  0.82212684  0.00837644  1
  I  I43  1  0.71701655  0.50399946  0.35108929  1
  I  I44  1  0.24960519  0.47634585  0.20595879  1
  I  I45  1  0.01992736  0.67787372  0.49163680  1
  I  I46  1  0.32173620  0.52120570  0.74098741  1
  I  I47  1  0.79140826  0.49752469  0.75384334  1
