# generated using pymatgen
data_BH10AuC2(I3N2)2
_symmetry_space_group_name_H-M   'P 1'
_cell_length_a   9.01622703
_cell_length_b   10.84558901
_cell_length_c   8.86295394
_cell_angle_alpha   90.08629748
_cell_angle_beta   90.00154851
_cell_angle_gamma   90.00119784
_symmetry_Int_Tables_number   1
_chemical_formula_structural   BH10AuC2(I3N2)2
_chemical_formula_sum   'B2 H20 Au2 C4 I12 N8'
_cell_volume   866.67442580
_cell_formula_units_Z   2
loop_
 _symmetry_equiv_pos_site_id
 _symmetry_equiv_pos_as_xyz
  1  'x, y, z'
loop_
 _atom_site_type_symbol
 _atom_site_label
 _atom_site_symmetry_multiplicity
 _atom_site_fract_x
 _atom_site_fract_y
 _atom_site_fract_z
 _atom_site_occupancy
  C  C0  1  0.50140708  0.29271341  0.49334643  1
  C  C1  1  0.00142163  0.20730165  0.00664972  1
  C  C2  1  0.50575301  0.78949195  0.48811079  1
  C  C3  1  0.00571955  0.71050631  0.01190388  1
  N  N4  1  0.59780725  0.23386380  0.57832413  1
  N  N5  1  0.41418339  0.24201794  0.39264778  1
  N  N6  1  0.09783324  0.26616289  0.92170178  1
  N  N7  1  0.91421784  0.25798033  0.10736977  1
  N  N8  1  0.59826517  0.73997033  0.58513315  1
  N  N9  1  0.40358171  0.73101471  0.41055644  1
  N  N10  1  0.09822017  0.76000143  0.91486042  1
  N  N11  1  0.90354180  0.76900353  0.08943158  1
  H  H12  1  0.49084100  0.39196707  0.51021759  1
  H  H13  1  0.65997862  0.28231991  0.65408088  1
  H  H14  1  0.62535521  0.14343174  0.56049389  1
  H  H15  1  0.34491925  0.29856744  0.33056374  1
  H  H16  1  0.41487975  0.14976066  0.36842183  1
  H  H17  1  0.99082898  0.10805420  0.98972173  1
  H  H18  1  0.15999141  0.21772346  0.84592036  1
  H  H19  1  0.12540861  0.35658573  0.93958248  1
  H  H20  1  0.84494168  0.20142233  0.16943608  1
  H  H21  1  0.91494008  0.35022707  0.13163914  1
  H  H22  1  0.51717826  0.88825291  0.46728050  1
  H  H23  1  0.67426817  0.79551112  0.63868432  1
  H  H24  1  0.59024594  0.65004847  0.61804952  1
  H  H25  1  0.33513665  0.78205432  0.34230645  1
  H  H26  1  0.38705623  0.63780465  0.41329131  1
  H  H27  1  0.01715754  0.61175180  0.03278730  1
  H  H28  1  0.17422154  0.70446508  0.86132882  1
  H  H29  1  0.09017144  0.84991885  0.88189427  1
  H  H30  1  0.83509947  0.71796724  0.15769960  1
  H  H31  1  0.88700381  0.86219722  0.08665050  1
  B  B32  1  0.43736956  0.01393410  0.89739718  1
  B  B33  1  0.93739467  0.48606646  0.60262265  1
  Au  Au34  1  0.97901853  0.98568099  0.48318020  1
  Au  Au35  1  0.47902227  0.51431364  0.01679452  1
  I  I36  1  0.49765703  0.18952302  0.98442890  1
  I  I37  1  0.18523739  0.98194046  0.27021048  1
  I  I38  1  0.71728236  0.02177912  0.29109521  1
  I  I39  1  0.99765922  0.31047630  0.51558435  1
  I  I40  1  0.29185363  0.01285031  0.70388789  1
  I  I41  1  0.83622699  0.97974344  0.74711597  1
  I  I42  1  0.49451996  0.83932994  0.98934803  1
  I  I43  1  0.68524452  0.51804257  0.22977284  1
  I  I44  1  0.21730189  0.47824567  0.20892396  1
  I  I45  1  0.99454314  0.66066845  0.51066031  1
  I  I46  1  0.33622686  0.52025934  0.75286631  1
  I  I47  1  0.79188582  0.48714962  0.79612978  1
