# generated using pymatgen
data_BH10IrC2(I3N2)2
_symmetry_space_group_name_H-M   'P 1'
_cell_length_a   8.74826158
_cell_length_b   10.57016268
_cell_length_c   8.74231789
_cell_angle_alpha   90.05797275
_cell_angle_beta   90.00036724
_cell_angle_gamma   90.00307738
_symmetry_Int_Tables_number   1
_chemical_formula_structural   BH10IrC2(I3N2)2
_chemical_formula_sum   'B2 H20 Ir2 C4 I12 N8'
_cell_volume   808.40651192
_cell_formula_units_Z   2
loop_
 _symmetry_equiv_pos_site_id
 _symmetry_equiv_pos_as_xyz
  1  'x, y, z'
loop_
 _atom_site_type_symbol
 _atom_site_label
 _atom_site_symmetry_multiplicity
 _atom_site_fract_x
 _atom_site_fract_y
 _atom_site_fract_z
 _atom_site_occupancy
  C  C0  1  0.49645058  0.29291915  0.49613367  1
  C  C1  1  0.99649073  0.20707678  0.00387252  1
  C  C2  1  0.50305932  0.79271719  0.50494780  1
  C  C3  1  0.00297967  0.70726877  0.99503695  1
  N  N4  1  0.58936960  0.23796399  0.59321419  1
  N  N5  1  0.40652840  0.23559035  0.39815598  1
  N  N6  1  0.08942271  0.26202215  0.90678717  1
  N  N7  1  0.90661502  0.26441691  0.10186261  1
  N  N8  1  0.60103039  0.73520635  0.59463580  1
  N  N9  1  0.40313687  0.73804180  0.41473054  1
  N  N10  1  0.10095236  0.76480552  0.90537678  1
  N  N11  1  0.90302147  0.76195225  0.08522749  1
  H  H12  1  0.49336785  0.39598713  0.49705356  1
  H  H13  1  0.65307508  0.29445624  0.66492498  1
  H  H14  1  0.60575666  0.14231335  0.59888153  1
  H  H15  1  0.34010627  0.29076029  0.32771150  1
  H  H16  1  0.39475440  0.13955055  0.39075224  1
  H  H17  1  0.99336297  0.10401005  0.00293056  1
  H  H18  1  0.15309591  0.20552286  0.83506254  1
  H  H19  1  0.10584629  0.35766652  0.90113437  1
  H  H20  1  0.84017027  0.20924921  0.17231239  1
  H  H21  1  0.89487420  0.36044623  0.10929534  1
  H  H22  1  0.50506737  0.89586128  0.50553102  1
  H  H23  1  0.67514970  0.79038016  0.65715703  1
  H  H24  1  0.60472292  0.63939009  0.61078636  1
  H  H25  1  0.33100734  0.79486406  0.35207616  1
  H  H26  1  0.39667521  0.64243599  0.39771165  1
  H  H27  1  0.00501623  0.60414732  0.99445343  1
  H  H28  1  0.17511675  0.70963088  0.84286005  1
  H  H29  1  0.10465043  0.86061109  0.88921331  1
  H  H30  1  0.83089953  0.70511060  0.14786590  1
  H  H31  1  0.89653314  0.85754522  0.10223719  1
  B  B32  1  0.49861803  0.01431311  0.00130546  1
  B  B33  1  0.99894272  0.48572055  0.49901149  1
  Ir  Ir34  1  0.00058928  0.01747458  0.49870267  1
  Ir  Ir35  1  0.50058400  0.48254666  0.00124111  1
  I  I36  1  0.49958006  0.21421674  0.99980307  1
  I  I37  1  0.17939480  0.98439406  0.25553632  1
  I  I38  1  0.75518628  0.01233220  0.31748257  1
  I  I39  1  0.99971175  0.28581511  0.50033432  1
  I  I40  1  0.24609418  0.01692200  0.67991827  1
  I  I41  1  0.82071760  0.98812524  0.74183118  1
  I  I42  1  0.50042510  0.81732095  0.00089375  1
  I  I43  1  0.67940144  0.51554970  0.24441135  1
  I  I44  1  0.25517760  0.48770581  0.18247080  1
  I  I45  1  0.00047245  0.68271151  0.49908241  1
  I  I46  1  0.32072914  0.51195355  0.75810528  1
  I  I47  1  0.74608924  0.48304085  0.82004207  1
