# generated using pymatgen
data_InBH10C2(I3N2)2
_symmetry_space_group_name_H-M   'P 1'
_cell_length_a   9.32717483
_cell_length_b   10.38904410
_cell_length_c   9.03934396
_cell_angle_alpha   88.31450286
_cell_angle_beta   90.00270257
_cell_angle_gamma   89.99761338
_symmetry_Int_Tables_number   1
_chemical_formula_structural   InBH10C2(I3N2)2
_chemical_formula_sum   'In2 B2 H20 C4 I12 N8'
_cell_volume   875.53734408
_cell_formula_units_Z   2
loop_
 _symmetry_equiv_pos_site_id
 _symmetry_equiv_pos_as_xyz
  1  'x, y, z'
loop_
 _atom_site_type_symbol
 _atom_site_label
 _atom_site_symmetry_multiplicity
 _atom_site_fract_x
 _atom_site_fract_y
 _atom_site_fract_z
 _atom_site_occupancy
  C  C0  1  0.48995532  0.27506224  0.50429091  1
  C  C1  1  0.98982103  0.22497028  0.99573668  1
  C  C2  1  0.49802653  0.80499716  0.48760847  1
  C  C3  1  -0.00190001  0.69499527  0.01237006  1
  N  N4  1  0.59354327  0.22439521  0.58505565  1
  N  N5  1  0.42586285  0.21986315  0.39323597  1
  N  N6  1  0.09342028  0.27562193  0.91498534  1
  N  N7  1  0.92586172  0.28011143  0.10689922  1
  N  N8  1  0.57492457  0.75594557  0.59664410  1
  N  N9  1  0.39839713  0.74405157  0.41428382  1
  N  N10  1  0.07505617  0.74400766  0.90337226  1
  N  N11  1  0.89842387  0.75597318  0.08560072  1
  H  H12  1  0.45051475  0.36984215  0.53492274  1
  H  H13  1  0.63651862  0.27625032  0.66856168  1
  H  H14  1  0.64113957  0.13815103  0.56352982  1
  H  H15  1  0.35326627  0.27336224  0.33162926  1
  H  H16  1  0.46202894  0.13597764  0.35052770  1
  H  H17  1  0.95025999  0.13026053  0.96498995  1
  H  H18  1  0.13630217  0.22382230  0.83138451  1
  H  H19  1  0.14112441  0.36179013  0.93663194  1
  H  H20  1  0.85324549  0.22662099  0.16847935  1
  H  H21  1  0.96214188  0.36392182  0.14970305  1
  H  H22  1  0.52165179  0.90395617  0.45181123  1
  H  H23  1  0.64973918  0.81238777  0.64778756  1
  H  H24  1  0.55650326  0.66523446  0.63994002  1
  H  H25  1  0.34739895  0.79053801  0.32804874  1
  H  H26  1  0.36991122  0.65065608  0.43753196  1
  H  H27  1  0.02171029  0.59604354  0.04822780  1
  H  H28  1  0.14989297  0.68753851  0.85229236  1
  H  H29  1  0.05668941  0.83472059  0.86005288  1
  H  H30  1  0.84738071  0.70951762  0.17181858  1
  H  H31  1  0.86993322  0.84935756  0.06227147  1
  B  B32  1  0.38894420  0.99962234  0.97458748  1
  B  B33  1  0.88895246  0.50046375  0.52539597  1
  In  In34  1  0.01534740  0.00002295  0.48930958  1
  In  In35  1  0.51537071  0.49996399  0.01065734  1
  I  I36  1  0.52099847  0.18161888  0.99101311  1
  I  I37  1  0.22351650  0.99386390  0.16053587  1
  I  I38  1  0.75188326  0.01922894  0.29734456  1
  I  I39  1  0.02091695  0.31838724  0.50899801  1
  I  I40  1  0.28710858  0.00491163  0.74612175  1
  I  I41  1  0.82208865  0.98046781  0.75807950  1
  I  I42  1  0.52069495  0.81837093  0.00480363  1
  I  I43  1  0.72351889  0.50625785  0.33943649  1
  I  I44  1  0.25192980  0.48067992  0.20266968  1
  I  I45  1  0.02079115  0.68163225  0.49516340  1
  I  I46  1  0.32207879  0.51941787  0.74190329  1
  I  I47  1  0.78713276  0.49520861  0.75385930  1
