# generated using pymatgen
data_AgBH10C2(I3N2)2
_symmetry_space_group_name_H-M   'P 1'
_cell_length_a   9.08948722
_cell_length_b   10.73420620
_cell_length_c   8.87846998
_cell_angle_alpha   89.99662624
_cell_angle_beta   90.00022346
_cell_angle_gamma   90.00270230
_symmetry_Int_Tables_number   1
_chemical_formula_structural   AgBH10C2(I3N2)2
_chemical_formula_sum   'Ag2 B2 H20 C4 I12 N8'
_cell_volume   866.25837469
_cell_formula_units_Z   2
loop_
 _symmetry_equiv_pos_site_id
 _symmetry_equiv_pos_as_xyz
  1  'x, y, z'
loop_
 _atom_site_type_symbol
 _atom_site_label
 _atom_site_symmetry_multiplicity
 _atom_site_fract_x
 _atom_site_fract_y
 _atom_site_fract_z
 _atom_site_occupancy
  C  C0  1  0.50198670  0.28990625  0.49401755  1
  C  C1  1  0.00198382  0.21011380  0.00594441  1
  C  C2  1  0.50758238  0.79447036  0.49028428  1
  C  C3  1  0.00755266  0.70553881  0.00973768  1
  N  N4  1  0.59681635  0.23103800  0.58061505  1
  N  N5  1  0.41353067  0.23804340  0.39591786  1
  N  N6  1  0.09685754  0.26900506  0.91943866  1
  N  N7  1  0.91354337  0.26195850  0.10410177  1
  N  N8  1  0.59899691  0.74421075  0.58745820  1
  N  N9  1  0.40723138  0.73544141  0.41156983  1
  N  N10  1  0.09897961  0.75574887  0.91253418  1
  N  N11  1  0.90717905  0.76458973  0.08836914  1
  H  H12  1  0.49372933  0.39069360  0.50726556  1
  H  H13  1  0.65963453  0.28102311  0.65405168  1
  H  H14  1  0.62275626  0.13904158  0.56675845  1
  H  H15  1  0.34505950  0.29515429  0.33373237  1
  H  H16  1  0.40881667  0.14426202  0.37535320  1
  H  H17  1  0.99362185  0.10934917  0.99257839  1
  H  H18  1  0.15965361  0.21904521  0.84595176  1
  H  H19  1  0.12288356  0.36097946  0.93340898  1
  H  H20  1  0.84505275  0.20483481  0.16624763  1
  H  H21  1  0.90894328  0.35572103  0.12476160  1
  H  H22  1  0.51809053  0.89443564  0.47040762  1
  H  H23  1  0.67350528  0.80017944  0.64253860  1
  H  H24  1  0.58978199  0.65323627  0.61984726  1
  H  H25  1  0.33822905  0.78784409  0.34503360  1
  H  H26  1  0.39014604  0.64143113  0.41575343  1
  H  H27  1  0.01809242  0.60558248  0.02971354  1
  H  H28  1  0.17348885  0.69977050  0.85749714  1
  H  H29  1  0.08973769  0.84671237  0.88005795  1
  H  H30  1  0.83815715  0.71220413  0.15493102  1
  H  H31  1  0.89004515  0.85858136  0.08408060  1
  B  B32  1  0.43510818  0.01062882  0.90158296  1
  B  B33  1  0.93498749  0.48935989  0.59850582  1
  Ag  Ag34  1  0.96530047  0.98810130  0.47990889  1
  Ag  Ag35  1  0.46509212  0.51187609  0.02004247  1
  I  I36  1  0.49726397  0.18715280  0.98860799  1
  I  I37  1  0.18946263  0.98380483  0.27493041  1
  I  I38  1  0.72177310  0.02229691  0.29086694  1
  I  I39  1  0.99708078  0.31283740  0.51144734  1
  I  I40  1  0.29228633  0.01095061  0.70754192  1
  I  I41  1  0.83759755  0.97997271  0.75950280  1
  I  I42  1  0.49587813  0.83590816  0.99450202  1
  I  I43  1  0.68933992  0.51621020  0.22496867  1
  I  I44  1  0.22168106  0.47769281  0.20922536  1
  I  I45  1  0.99569483  0.66406762  0.50549886  1
  I  I46  1  0.33753906  0.52000846  0.74039565  1
  I  I47  1  0.79226778  0.48904772  0.79261764  1
