# generated using pymatgen
data_BH10RhC2(I3N2)2
_symmetry_space_group_name_H-M   'P 1'
_cell_length_a   8.74978922
_cell_length_b   10.53897298
_cell_length_c   8.74971603
_cell_angle_alpha   90.07436889
_cell_angle_beta   89.99857952
_cell_angle_gamma   89.99903191
_symmetry_Int_Tables_number   1
_chemical_formula_structural   BH10RhC2(I3N2)2
_chemical_formula_sum   'B2 H20 Rh2 C4 I12 N8'
_cell_volume   806.84381499
_cell_formula_units_Z   2
loop_
 _symmetry_equiv_pos_site_id
 _symmetry_equiv_pos_as_xyz
  1  'x, y, z'
loop_
 _atom_site_type_symbol
 _atom_site_label
 _atom_site_symmetry_multiplicity
 _atom_site_fract_x
 _atom_site_fract_y
 _atom_site_fract_z
 _atom_site_occupancy
  C  C0  1  0.49612537  0.29315145  0.49602049  1
  C  C1  1  0.99613457  0.20685283  0.00398454  1
  C  C2  1  0.50323122  0.79298456  0.50541862  1
  C  C3  1  0.00317700  0.70701077  0.99457282  1
  N  N4  1  0.58890378  0.23815938  0.59318727  1
  N  N5  1  0.40630866  0.23550094  0.39811158  1
  N  N6  1  0.08897330  0.26183020  0.90679392  1
  N  N7  1  0.90636152  0.26450833  0.10188695  1
  N  N8  1  0.60095957  0.73518261  0.59513698  1
  N  N9  1  0.40345492  0.73824685  0.41492979  1
  N  N10  1  0.10090478  0.76483566  0.90482799  1
  N  N11  1  0.90342387  0.76172550  0.08505875  1
  H  H12  1  0.49304276  0.39650398  0.49668794  1
  H  H13  1  0.65222177  0.29501832  0.66502009  1
  H  H14  1  0.60567944  0.14227907  0.59879930  1
  H  H15  1  0.34022579  0.29084877  0.32740305  1
  H  H16  1  0.39398727  0.13918394  0.39126302  1
  H  H17  1  0.99303095  0.10353143  0.00326435  1
  H  H18  1  0.15226901  0.20498360  0.83497293  1
  H  H19  1  0.10577888  0.35773544  0.90122537  1
  H  H20  1  0.84023892  0.20919168  0.17257572  1
  H  H21  1  0.89404585  0.36086278  0.10876622  1
  H  H22  1  0.50527196  0.89637500  0.50621184  1
  H  H23  1  0.67500675  0.79058627  0.65767870  1
  H  H24  1  0.60460953  0.63908868  0.61123383  1
  H  H25  1  0.33153433  0.79536863  0.35231567  1
  H  H26  1  0.39713253  0.64237799  0.39768016  1
  H  H27  1  0.00526435  0.60362265  0.99375142  1
  H  H28  1  0.17495787  0.70944379  0.84228488  1
  H  H29  1  0.10451549  0.86092089  0.88874812  1
  H  H30  1  0.83150095  0.70458746  0.14768457  1
  H  H31  1  0.89704746  0.85760096  0.10233302  1
  B  B32  1  0.50048395  0.01283307  0.00657664  1
  B  B33  1  0.00116361  0.48716596  0.49387925  1
  Rh  Rh34  1  0.00039923  0.01859474  0.49831587  1
  Rh  Rh35  1  0.50036305  0.48138161  0.00161154  1
  I  I36  1  0.50028551  0.21154685  0.00151082  1
  I  I37  1  0.17953176  0.98406368  0.25429415  1
  I  I38  1  0.75399934  0.01243467  0.31720369  1
  I  I39  1  0.00052204  0.28845232  0.49865362  1
  I  I40  1  0.24623721  0.01718225  0.67951196  1
  I  I41  1  0.82045771  0.98856782  0.74192993  1
  I  I42  1  0.50058693  0.81628289  0.00065010  1
  I  I43  1  0.67947592  0.51586182  0.24560622  1
  I  I44  1  0.25394209  0.48759553  0.18275874  1
  I  I45  1  0.00060788  0.68372320  0.49934391  1
  I  I46  1  0.32043655  0.51149332  0.75797846  1
  I  I47  1  0.74620613  0.48278284  0.82044995  1
