# generated using pymatgen
data_YBH10C2(I3N2)2
_symmetry_space_group_name_H-M   'P 1'
_cell_length_a   8.57553379
_cell_length_b   11.82578303
_cell_length_c   8.48346581
_cell_angle_alpha   89.91180146
_cell_angle_beta   90.00950407
_cell_angle_gamma   90.00462257
_symmetry_Int_Tables_number   1
_chemical_formula_structural   YBH10C2(I3N2)2
_chemical_formula_sum   'Y2 B2 H20 C4 I12 N8'
_cell_volume   860.32761098
_cell_formula_units_Z   2
loop_
 _symmetry_equiv_pos_site_id
 _symmetry_equiv_pos_as_xyz
  1  'x, y, z'
loop_
 _atom_site_type_symbol
 _atom_site_label
 _atom_site_symmetry_multiplicity
 _atom_site_fract_x
 _atom_site_fract_y
 _atom_site_fract_z
 _atom_site_occupancy
  C  C0  1  0.49811330  0.28815628  0.49703897  1
  C  C1  1  0.99803525  0.21185575  0.00295064  1
  C  C2  1  0.50549551  0.78891320  0.50196843  1
  C  C3  1  0.00536737  0.71090795  0.99801597  1
  N  N4  1  0.59718648  0.23823451  0.59215332  1
  N  N5  1  0.40424748  0.23679624  0.39845900  1
  N  N6  1  0.09708464  0.26178100  0.90787135  1
  N  N7  1  0.90424179  0.26320840  0.10158890  1
  N  N8  1  0.60089325  0.73790090  0.59969641  1
  N  N9  1  0.40556649  0.73837501  0.40870906  1
  N  N10  1  0.10087064  0.76190154  0.90047030  1
  N  N11  1  0.90526990  0.76144065  0.09110321  1
  H  H12  1  0.49269923  0.38029136  0.50045469  1
  H  H13  1  0.66473947  0.28652294  0.66473698  1
  H  H14  1  0.60932681  0.15253325  0.60023401  1
  H  H15  1  0.33124815  0.28460700  0.33024710  1
  H  H16  1  0.40039531  0.15111363  0.38447872  1
  H  H17  1  0.99253429  0.11972223  0.99947617  1
  H  H18  1  0.16459187  0.21350312  0.83522958  1
  H  H19  1  0.10931056  0.34748617  0.89983171  1
  H  H20  1  0.83123262  0.21540345  0.16974145  1
  H  H21  1  0.90046147  0.34888376  0.11559392  1
  H  H22  1  0.51028169  0.88100719  0.49764813  1
  H  H23  1  0.67263024  0.78624432  0.66854095  1
  H  H24  1  0.60550366  0.65211369  0.61358272  1
  H  H25  1  0.33734591  0.78683595  0.33653884  1
  H  H26  1  0.39098872  0.65264245  0.40367466  1
  H  H27  1  0.01012900  0.61880737  0.00240479  1
  H  H28  1  0.17279985  0.71356213  0.83186454  1
  H  H29  1  0.10548220  0.84768599  0.88655853  1
  H  H30  1  0.83684897  0.71295676  0.16304763  1
  H  H31  1  0.89068667  0.84717216  0.09608254  1
  B  B32  1  0.44978551  0.96314595  0.00082837  1
  B  B33  1  0.95038133  0.53744449  0.49916670  1
  Y  Y34  1  0.99447896  0.00566120  0.50325106  1
  Y  Y35  1  0.49459896  0.49467780  0.99682383  1
  I  I36  1  0.50634351  0.25061483  0.99732071  1
  I  I37  1  0.21925756  0.98286647  0.21344357  1
  I  I38  1  0.72363393  0.00889951  0.28061473  1
  I  I39  1  0.00636783  0.24965288  0.50273778  1
  I  I40  1  0.28784377  0.00547949  0.71779411  1
  I  I41  1  0.78924591  0.98379645  0.78318927  1
  I  I42  1  0.50308758  0.75974524  0.00397150  1
  I  I43  1  0.71946599  0.51720692  0.28660875  1
  I  I44  1  0.22364218  0.49103890  0.21937534  1
  I  I45  1  0.00337685  0.74058352  0.49593535  1
  I  I46  1  0.28912941  0.51612250  0.71686086  1
  I  I47  1  0.78777128  0.49456051  0.78218962  1
