# generated using pymatgen
data_GaBH10C2(I3N2)2
_symmetry_space_group_name_H-M   'P 1'
_cell_length_a   9.27991121
_cell_length_b   10.28013400
_cell_length_c   8.92260774
_cell_angle_alpha   88.03689165
_cell_angle_beta   90.00188518
_cell_angle_gamma   89.99034715
_symmetry_Int_Tables_number   1
_chemical_formula_structural   GaBH10C2(I3N2)2
_chemical_formula_sum   'Ga2 B2 H20 C4 I12 N8'
_cell_volume   850.70586106
_cell_formula_units_Z   2
loop_
 _symmetry_equiv_pos_site_id
 _symmetry_equiv_pos_as_xyz
  1  'x, y, z'
loop_
 _atom_site_type_symbol
 _atom_site_label
 _atom_site_symmetry_multiplicity
 _atom_site_fract_x
 _atom_site_fract_y
 _atom_site_fract_z
 _atom_site_occupancy
  C  C0  1  0.48949911  0.27131133  0.50455329  1
  C  C1  1  0.98951184  0.22873550  0.99546826  1
  C  C2  1  0.49797101  0.80778731  0.48521854  1
  C  C3  1  0.99793747  0.69226220  0.01475255  1
  N  N4  1  0.59398659  0.22133695  0.58694949  1
  N  N5  1  0.42471783  0.21418598  0.39353931  1
  N  N6  1  0.09403145  0.27869581  0.91310423  1
  N  N7  1  0.92475000  0.28583991  0.10649048  1
  N  N8  1  0.57711164  0.76024963  0.59561886  1
  N  N9  1  0.39700416  0.74474017  0.41443289  1
  N  N10  1  0.07709635  0.73983723  0.90437406  1
  N  N11  1  0.89696830  0.75529159  0.08554506  1
  H  H12  1  0.44963962  0.36728402  0.53374356  1
  H  H13  1  0.63679595  0.27461261  0.67075719  1
  H  H14  1  0.64259755  0.13432204  0.56656791  1
  H  H15  1  0.35245268  0.26804661  0.32982228  1
  H  H16  1  0.46110456  0.12933629  0.35122912  1
  H  H17  1  0.94962707  0.13277657  0.96620518  1
  H  H18  1  0.13682801  0.22544156  0.82926837  1
  H  H19  1  0.14265129  0.36566635  0.93356667  1
  H  H20  1  0.85246783  0.23199287  0.17019783  1
  H  H21  1  0.96116131  0.37065700  0.14885410  1
  H  H22  1  0.52099843  0.90720280  0.44574679  1
  H  H23  1  0.65296979  0.81819710  0.64475399  1
  H  H24  1  0.55996765  0.66904141  0.64192557  1
  H  H25  1  0.34429727  0.79010396  0.32663452  1
  H  H26  1  0.36985745  0.65037786  0.44047397  1
  H  H27  1  0.02097417  0.59282398  0.05416453  1
  H  H28  1  0.15296256  0.68189334  0.85523259  1
  H  H29  1  0.05993080  0.83105767  0.85812196  1
  H  H30  1  0.84424806  0.70990153  0.17332011  1
  H  H31  1  0.86979822  0.84967569  0.05955744  1
  B  B32  1  0.38724668  0.99938449  0.97494985  1
  B  B33  1  0.88724944  0.50052990  0.52504013  1
  Ga  Ga34  1  0.00594022  0.99644959  0.49576363  1
  Ga  Ga35  1  0.50595120  0.50320117  0.00420125  1
  I  I36  1  0.52049540  0.18263791  0.99391783  1
  I  I37  1  0.21853400  0.99219090  0.16106580  1
  I  I38  1  0.76306273  0.01784830  0.30116708  1
  I  I39  1  0.02050301  0.31726803  0.50608718  1
  I  I40  1  0.28556919  0.00539651  0.74311949  1
  I  I41  1  0.82752161  0.98152100  0.75605071  1
  I  I42  1  0.52066330  0.81616801  0.00608217  1
  I  I43  1  0.71851299  0.50780315  0.33894273  1
  I  I44  1  0.26306907  0.48217192  0.19882167  1
  I  I45  1  0.02067269  0.68372924  0.49389400  1
  I  I46  1  0.32751568  0.51849441  0.74393356  1
  I  I47  1  0.78559610  0.49458358  0.75687699  1
