# generated using pymatgen
data_MgH12PbC2(I3N)2
_symmetry_space_group_name_H-M   'P 1'
_cell_length_a   8.43742366
_cell_length_b   12.17949133
_cell_length_c   8.31478790
_cell_angle_alpha   88.84113394
_cell_angle_beta   90.00317132
_cell_angle_gamma   90.00998954
_symmetry_Int_Tables_number   1
_chemical_formula_structural   MgH12PbC2(I3N)2
_chemical_formula_sum   'Mg2 H24 Pb2 C4 I12 N4'
_cell_volume   854.28215738
_cell_formula_units_Z   2
loop_
 _symmetry_equiv_pos_site_id
 _symmetry_equiv_pos_as_xyz
  1  'x, y, z'
loop_
 _atom_site_type_symbol
 _atom_site_label
 _atom_site_symmetry_multiplicity
 _atom_site_fract_x
 _atom_site_fract_y
 _atom_site_fract_z
 _atom_site_occupancy
  C  C0  1  0.39812516  0.24963384  0.41512166  1
  C  C1  1  0.89910804  0.25046947  0.08580432  1
  C  C2  1  0.60187192  0.75036991  0.58489106  1
  C  C3  1  0.10089790  0.74953253  0.91420765  1
  N  N4  1  0.53935782  0.24926784  0.52109683  1
  N  N5  1  0.03976587  0.25073988  0.97907223  1
  N  N6  1  0.46063798  0.75073709  0.47891749  1
  N  N7  1  0.96024096  0.74925854  0.02094096  1
  H  H8  1  0.43769358  0.25022916  0.28976920  1
  H  H9  1  0.32904531  0.17542557  0.44074002  1
  H  H10  1  0.32784575  0.32291555  0.43872181  1
  H  H11  1  0.60879280  0.18077543  0.49815480  1
  H  H12  1  0.60809425  0.31887435  0.49783125  1
  H  H13  1  0.50947759  0.24753038  0.64299114  1
  H  H14  1  0.93938322  0.24990305  0.21092991  1
  H  H15  1  0.82857786  0.17721100  0.06267472  1
  H  H16  1  0.83001574  0.32471723  0.06055418  1
  H  H17  1  0.10850214  0.18110146  0.00204834  1
  H  H18  1  0.10941609  0.31920345  0.00161345  1
  H  H19  1  0.00927577  0.25245063  0.85733414  1
  H  H20  1  0.56230491  0.74977542  0.71024399  1
  H  H21  1  0.67214938  0.67708757  0.56129054  1
  H  H22  1  0.67095303  0.82457750  0.55927137  1
  H  H23  1  0.39120377  0.81922955  0.50186054  1
  H  H24  1  0.39190133  0.68113044  0.50218332  1
  H  H25  1  0.49051735  0.75247463  0.35702285  1
  H  H26  1  0.06062185  0.75010113  0.78908226  1
  H  H27  1  0.17142720  0.82279103  0.93734006  1
  H  H28  1  0.16999165  0.67528481  0.93945386  1
  H  H29  1  0.89150197  0.81889583  0.99796714  1
  H  H30  1  0.89059318  0.68079393  0.99839876  1
  H  H31  1  0.99073192  0.74754729  0.14267880  1
  Mg  Mg32  1  0.50000313  0.00000305  0.00000636  1
  Mg  Mg33  1  0.99999778  0.50000346  0.50000001  1
  Pb  Pb34  1  0.00000007  0.00000387  0.50000640  1
  Pb  Pb35  1  0.50000007  0.50000402  0.00000217  1
  I  I36  1  0.47639223  0.23991800  0.94396207  1
  I  I37  1  0.19600083  0.00868114  0.16862080  1
  I  I38  1  0.66974925  0.01581046  0.30787439  1
  I  I39  1  0.97579810  0.26008827  0.55650247  1
  I  I40  1  0.33025102  0.98419546  0.69214272  1
  I  I41  1  0.80400481  0.99132138  0.83139551  1
  I  I42  1  0.52361366  0.76008859  0.05605257  1
  I  I43  1  0.69605602  0.49121791  0.33127250  1
  I  I44  1  0.16987352  0.48424584  0.19220109  1
  I  I45  1  0.02419725  0.73991720  0.44351013  1
  I  I46  1  0.30393941  0.50878552  0.66873384  1
  I  I47  1  0.83012326  0.51575865  0.80780489  1
