# generated using pymatgen
data_CuBH10C2(I3N2)2
_symmetry_space_group_name_H-M   'P 1'
_cell_length_a   8.96104054
_cell_length_b   10.76614866
_cell_length_c   8.76214261
_cell_angle_alpha   89.91768165
_cell_angle_beta   89.99705919
_cell_angle_gamma   90.00018416
_symmetry_Int_Tables_number   1
_chemical_formula_structural   CuBH10C2(I3N2)2
_chemical_formula_sum   'Cu2 B2 H20 C4 I12 N8'
_cell_volume   845.33467256
_cell_formula_units_Z   2
loop_
 _symmetry_equiv_pos_site_id
 _symmetry_equiv_pos_as_xyz
  1  'x, y, z'
loop_
 _atom_site_type_symbol
 _atom_site_label
 _atom_site_symmetry_multiplicity
 _atom_site_fract_x
 _atom_site_fract_y
 _atom_site_fract_z
 _atom_site_occupancy
  C  C0  1  0.50208809  0.29210050  0.49390842  1
  C  C1  1  0.00211071  0.20791192  0.00607650  1
  C  C2  1  0.50860054  0.79205350  0.49207193  1
  C  C3  1  0.00855370  0.70795219  0.00794192  1
  N  N4  1  0.59690530  0.23480422  0.58444425  1
  N  N5  1  0.41218809  0.23878774  0.39604921  1
  N  N6  1  0.09695815  0.26519825  0.91556476  1
  N  N7  1  0.91223351  0.26123005  0.10396955  1
  N  N8  1  0.60371049  0.74146025  0.58763801  1
  N  N9  1  0.40674065  0.73331285  0.41236236  1
  N  N10  1  0.10365032  0.75853970  0.91234931  1
  N  N11  1  0.90667305  0.76669163  0.08763300  1
  H  H12  1  0.49564257  0.39301371  0.50260457  1
  H  H13  1  0.65978340  0.28591697  0.65830382  1
  H  H14  1  0.62098554  0.14225944  0.57586476  1
  H  H15  1  0.34417298  0.29494704  0.33037507  1
  H  H16  1  0.40526617  0.14482853  0.38028220  1
  H  H17  1  0.99560069  0.10700115  0.99732657  1
  H  H18  1  0.15981664  0.21408633  0.84168533  1
  H  H19  1  0.12109400  0.35772607  0.92419579  1
  H  H20  1  0.84419118  0.20507858  0.16962918  1
  H  H21  1  0.90538308  0.35518401  0.11978942  1
  H  H22  1  0.51687509  0.89217828  0.47474246  1
  H  H23  1  0.67974053  0.79739486  0.64248762  1
  H  H24  1  0.59617325  0.65033819  0.61938449  1
  H  H25  1  0.33437019  0.78577340  0.34808276  1
  H  H26  1  0.39261019  0.63915766  0.41217343  1
  H  H27  1  0.01686430  0.60783515  0.02531336  1
  H  H28  1  0.17969549  0.70260654  0.85751286  1
  H  H29  1  0.09607542  0.84964846  0.88055908  1
  H  H30  1  0.83431804  0.71423382  0.15193781  1
  H  H31  1  0.89249510  0.86084267  0.08777813  1
  B  B32  1  0.43757338  0.01222293  0.90469966  1
  B  B33  1  0.93754798  0.48776566  0.59530998  1
  Cu  Cu34  1  0.94931890  0.99061038  0.47300823  1
  Cu  Cu35  1  0.44933506  0.50939146  0.02698823  1
  I  I36  1  0.49878828  0.18902254  0.99229980  1
  I  I37  1  0.17383476  0.98336695  0.29686127  1
  I  I38  1  0.72516030  0.02136138  0.29604987  1
  I  I39  1  0.99876253  0.31096505  0.50770426  1
  I  I40  1  0.29504720  0.01209300  0.70660366  1
  I  I41  1  0.84822358  0.98101541  0.74320186  1
  I  I42  1  0.49632571  0.83702830  0.99892885  1
  I  I43  1  0.67380965  0.51662393  0.20317429  1
  I  I44  1  0.22514985  0.47864947  0.20394295  1
  I  I45  1  0.99631348  0.66295701  0.50107394  1
  I  I46  1  0.34823740  0.51899882  0.75680307  1
  I  I47  1  0.79502478  0.48789705  0.79341690  1
