# generated using pymatgen
data_TiBH10C2(I3N2)2
_symmetry_space_group_name_H-M   'P 1'
_cell_length_a   9.06002982
_cell_length_b   10.64008707
_cell_length_c   8.69791730
_cell_angle_alpha   86.52451434
_cell_angle_beta   96.21200419
_cell_angle_gamma   86.59724401
_symmetry_Int_Tables_number   1
_chemical_formula_structural   TiBH10C2(I3N2)2
_chemical_formula_sum   'Ti2 B2 H20 C4 I12 N8'
_cell_volume   830.18101532
_cell_formula_units_Z   2
loop_
 _symmetry_equiv_pos_site_id
 _symmetry_equiv_pos_as_xyz
  1  'x, y, z'
loop_
 _atom_site_type_symbol
 _atom_site_label
 _atom_site_symmetry_multiplicity
 _atom_site_fract_x
 _atom_site_fract_y
 _atom_site_fract_z
 _atom_site_occupancy
  C  C0  1  0.49571761  0.30859158  0.62353159  1
  C  C1  1  0.99223669  0.17629713  0.91905359  1
  C  C2  1  0.41811818  0.73328135  0.48899211  1
  C  C3  1  0.07024521  0.76044418  0.11196116  1
  N  N4  1  0.56225426  0.41461369  0.62101297  1
  N  N5  1  0.46359581  0.23917738  0.50474300  1
  N  N6  1  0.01207572  0.25570280  0.78709463  1
  N  N7  1  0.87760358  0.21659642  0.00631983  1
  N  N8  1  0.55913680  0.69423557  0.57140998  1
  N  N9  1  0.35805752  0.68932427  0.36626859  1
  N  N10  1  0.11583339  0.76951291  0.97374446  1
  N  N11  1  0.92987091  0.77452769  0.13770586  1
  H  H12  1  0.60070566  0.43908507  0.51612253  1
  H  H13  1  0.98922017  0.44144165  0.53287901  1
  H  H14  1  0.46047996  0.27217663  0.73316186  1
  H  H15  1  0.47755734  0.26942117  0.39391931  1
  H  H16  1  0.40358724  0.16211092  0.52055716  1
  H  H17  1  0.09583573  0.14523927  0.99144938  1
  H  H18  1  0.11643465  0.28755624  0.78130129  1
  H  H19  1  0.93481907  0.33143348  0.76131355  1
  H  H20  1  0.78893651  0.26668783  0.94319333  1
  H  H21  1  0.83770656  0.14366669  0.06797496  1
  H  H22  1  0.35699734  0.80690739  0.54467641  1
  H  H23  1  0.60867712  0.76800198  0.62373851  1
  H  H24  1  0.63237331  0.65477008  0.50147124  1
  H  H25  1  0.42437513  0.62002664  0.32450806  1
  H  H26  1  0.57894344  0.41928706  0.90644155  1
  H  H27  1  0.15538042  0.74082442  0.21246350  1
  H  H28  1  0.22775857  0.75739447  0.96460462  1
  H  H29  1  0.04580830  0.77996678  0.87229572  1
  H  H30  1  0.90453443  0.76064925  0.24866228  1
  H  H31  1  0.84377600  0.78548737  0.05071683  1
  B  B32  1  0.44987574  0.06665892  0.20580580  1
  B  B33  1  0.95939244  0.40955089  0.40455608  1
  Ti  Ti34  1  0.97494319  0.07253344  0.70513363  1
  Ti  Ti35  1  0.54300512  0.55084498  0.78342772  1
  I  I36  1  0.48031969  0.23969773  0.07916763  1
  I  I37  1  0.23818160  0.02143529  0.26667428  1
  I  I38  1  0.64168753  0.95152560  0.29911103  1
  I  I39  1  0.89829403  0.20067279  0.42348879  1
  I  I40  1  0.27518464  0.02831150  0.75460682  1
  I  I41  1  0.71636813  0.99776967  0.78720750  1
  I  I42  1  0.50976709  0.72526594  0.98967041  1
  I  I43  1  0.74996025  0.51519779  0.28935792  1
  I  I44  1  0.14308314  0.42479549  0.25790525  1
  I  I45  1  0.98901927  0.83918974  0.55258241  1
  I  I46  1  0.25283810  0.51600002  0.76748037  1
  I  I47  1  0.83944676  0.55617384  0.83064020  1
