# generated using pymatgen
data_ScBH10C2(I3N2)2
_symmetry_space_group_name_H-M   'P 1'
_cell_length_a   8.43857386
_cell_length_b   11.72516814
_cell_length_c   8.41651751
_cell_angle_alpha   90.56012491
_cell_angle_beta   90.00492370
_cell_angle_gamma   89.98182210
_symmetry_Int_Tables_number   1
_chemical_formula_structural   ScBH10C2(I3N2)2
_chemical_formula_sum   'Sc2 B2 H20 C4 I12 N8'
_cell_volume   832.72152402
_cell_formula_units_Z   2
loop_
 _symmetry_equiv_pos_site_id
 _symmetry_equiv_pos_as_xyz
  1  'x, y, z'
loop_
 _atom_site_type_symbol
 _atom_site_label
 _atom_site_symmetry_multiplicity
 _atom_site_fract_x
 _atom_site_fract_y
 _atom_site_fract_z
 _atom_site_occupancy
  C  C0  1  0.49779087  0.28877515  0.49765009  1
  C  C1  1  0.99775316  0.21126409  0.00227755  1
  C  C2  1  0.50525700  0.78891974  0.50297613  1
  C  C3  1  0.00514474  0.71087466  0.99690030  1
  N  N4  1  0.59632675  0.23878877  0.59508122  1
  N  N5  1  0.40230032  0.23653082  0.39812864  1
  N  N6  1  0.09632673  0.26121624  0.90492682  1
  N  N7  1  0.90225142  0.26351974  0.10182010  1
  N  N8  1  0.60158640  0.73689026  0.60049196  1
  N  N9  1  0.40417536  0.73855114  0.40722786  1
  N  N10  1  0.10152740  0.76291941  0.89951995  1
  N  N11  1  0.90392451  0.76119648  0.09259127  1
  H  H12  1  0.49456674  0.38180276  0.49954102  1
  H  H13  1  0.66559883  0.28826438  0.66756133  1
  H  H14  1  0.60802018  0.15233735  0.60381052  1
  H  H15  1  0.33001203  0.28466301  0.32804260  1
  H  H16  1  0.39503876  0.14991074  0.38649912  1
  H  H17  1  0.99446135  0.11823780  0.00030236  1
  H  H18  1  0.16565315  0.21172675  0.83249056  1
  H  H19  1  0.10810198  0.34766382  0.89629534  1
  H  H20  1  0.82989009  0.21538905  0.17178381  1
  H  H21  1  0.89498005  0.35014451  0.11355769  1
  H  H22  1  0.50985831  0.88187642  0.50140523  1
  H  H23  1  0.67488438  0.78569877  0.67009967  1
  H  H24  1  0.60657800  0.65031202  0.61311059  1
  H  H25  1  0.33410043  0.78811393  0.33677903  1
  H  H26  1  0.39050635  0.65202923  0.39804226  1
  H  H27  1  0.00982982  0.61791730  0.99843019  1
  H  H28  1  0.17511743  0.71409933  0.83017206  1
  H  H29  1  0.10648976  0.84949758  0.88695025  1
  H  H30  1  0.83370785  0.71156916  0.16276932  1
  H  H31  1  0.89006846  0.84770760  0.10174769  1
  B  B32  1  0.46543501  0.95237009  0.02769530  1
  B  B33  1  0.96754318  0.54813235  0.47370186  1
  Sc  Sc34  1  0.99752234  0.01690733  0.50323079  1
  Sc  Sc35  1  0.49769747  0.48347549  0.99731907  1
  I  I36  1  0.50200413  0.25251650  0.99914248  1
  I  I37  1  0.21537609  0.98265663  0.22169282  1
  I  I38  1  0.73379154  0.00792086  0.28189110  1
  I  I39  1  0.00207174  0.24773934  0.50075361  1
  I  I40  1  0.27376250  0.00663997  0.70673946  1
  I  I41  1  0.79290280  0.98613982  0.76561706  1
  I  I42  1  0.50256512  0.75684968  0.00288635  1
  I  I43  1  0.71506241  0.51729156  0.27800842  1
  I  I44  1  0.23320378  0.49206563  0.21802963  1
  I  I45  1  0.00282419  0.74357533  0.49699913  1
  I  I46  1  0.29287607  0.51395887  0.73442621  1
  I  I47  1  0.77355237  0.49341555  0.79298893  1
