# generated using pymatgen
data_CaBH10C2(I3N2)2
_symmetry_space_group_name_H-M   'P 1'
_cell_length_a   9.37373856
_cell_length_b   10.32622682
_cell_length_c   9.03436144
_cell_angle_alpha   89.08668673
_cell_angle_beta   90.16563276
_cell_angle_gamma   90.24324532
_symmetry_Int_Tables_number   1
_chemical_formula_structural   CaBH10C2(I3N2)2
_chemical_formula_sum   'Ca2 B2 H20 C4 I12 N8'
_cell_volume   874.36171872
_cell_formula_units_Z   2
loop_
 _symmetry_equiv_pos_site_id
 _symmetry_equiv_pos_as_xyz
  1  'x, y, z'
loop_
 _atom_site_type_symbol
 _atom_site_label
 _atom_site_symmetry_multiplicity
 _atom_site_fract_x
 _atom_site_fract_y
 _atom_site_fract_z
 _atom_site_occupancy
  C  C0  1  0.50254032  0.28353160  0.50263649  1
  C  C1  1  0.98918055  0.22658632  -0.00044266  1
  C  C2  1  0.51163986  0.79578236  0.49453661  1
  C  C3  1  -0.00114398  0.69566967  0.00813695  1
  N  N4  1  0.60780443  0.23689266  0.58276714  1
  N  N5  1  0.43272075  0.22117527  0.39883065  1
  N  N6  1  0.08492145  0.28244072  0.91374087  1
  N  N7  1  0.92884454  0.27821810  0.11508485  1
  N  N8  1  0.59452006  0.73917453  0.59292108  1
  N  N9  1  0.40886044  0.73977592  0.41965792  1
  N  N10  1  0.07086288  0.74381962  0.89562132  1
  N  N11  1  0.90286416  0.75798601  0.08454806  1
  H  H12  1  0.46595173  0.38109965  0.52761943  1
  H  H13  1  0.65665546  0.29521414  0.65908621  1
  H  H14  1  0.65150176  0.14780243  0.56572751  1
  H  H15  1  0.35743893  0.27148130  0.33836552  1
  H  H16  1  0.46878957  0.13566161  0.35840153  1
  H  H17  1  0.95441446  0.12919018  0.97010627  1
  H  H18  1  0.11700649  0.23808907  0.81935762  1
  H  H19  1  0.12545790  0.37287025  0.93173733  1
  H  H20  1  0.86062843  0.22241211  0.17837156  1
  H  H21  1  0.95447812  0.36801808  0.15258078  1
  H  H22  1  0.53271394  0.89792428  0.47064627  1
  H  H23  1  0.67072446  0.79324119  0.64608903  1
  H  H24  1  0.58370314  0.64414778  0.62471376  1
  H  H25  1  0.35170145  0.79153204  0.34310676  1
  H  H26  1  0.38078559  0.64463450  0.43396200  1
  H  H27  1  0.02479137  0.59744755  0.04491939  1
  H  H28  1  0.14180409  0.68631778  0.84010576  1
  H  H29  1  0.04625784  0.83243200  0.85045936  1
  H  H30  1  0.85193512  0.71079004  0.17005973  1
  H  H31  1  0.87181134  0.85032159  0.05889906  1
  B  B32  1  0.37851305  0.99724295  0.97736939  1
  B  B33  1  0.87125985  0.50427499  0.51942369  1
  Ca  Ca34  1  0.99308979  0.00131415  0.51163542  1
  Ca  Ca35  1  0.49240605  0.50033819  1.00139925  1
  I  I36  1  0.51430753  0.17691603  0.99589946  1
  I  I37  1  0.20707161  0.98893273  0.15405004  1
  I  I38  1  0.75122210  0.01738047  0.29782582  1
  I  I39  1  0.03360933  0.28967664  0.51146504  1
  I  I40  1  0.29062780  0.00161458  0.73979787  1
  I  I41  1  0.81003680  0.98069689  0.77597959  1
  I  I42  1  0.51424135  0.81949584  0.01267172  1
  I  I43  1  0.69225047  0.51412357  0.27651503  1
  I  I44  1  0.24533745  0.47806161  0.20722253  1
  I  I45  1  0.02846590  0.71290535  0.48030471  1
  I  I46  1  0.31094219  0.52052115  0.73050590  1
  I  I47  1  0.76447141  0.48488746  0.81568514  1
