# generated using pymatgen
data_BPH10C2(I3N2)2
_symmetry_space_group_name_H-M   'P 1'
_cell_length_a   8.93361723
_cell_length_b   11.32613388
_cell_length_c   8.27552036
_cell_angle_alpha   90.98224118
_cell_angle_beta   90.00366228
_cell_angle_gamma   90.00094647
_symmetry_Int_Tables_number   1
_chemical_formula_structural   BPH10C2(I3N2)2
_chemical_formula_sum   'B2 P2 H20 C4 I12 N8'
_cell_volume   837.22178547
_cell_formula_units_Z   2
loop_
 _symmetry_equiv_pos_site_id
 _symmetry_equiv_pos_as_xyz
  1  'x, y, z'
loop_
 _atom_site_type_symbol
 _atom_site_label
 _atom_site_symmetry_multiplicity
 _atom_site_fract_x
 _atom_site_fract_y
 _atom_site_fract_z
 _atom_site_occupancy
  C  C0  1  0.50254328  0.28071284  0.49034277  1
  C  C1  1  0.00267472  0.21926962  0.00969605  1
  C  C2  1  0.49856366  0.79667589  0.51359629  1
  C  C3  1  0.99851820  0.70331153  0.98640073  1
  N  N4  1  0.59873715  0.22454471  0.58099708  1
  N  N5  1  0.40104098  0.23225806  0.39595238  1
  N  N6  1  0.09888042  0.27542817  0.91899313  1
  N  N7  1  0.90119652  0.26772847  0.10405131  1
  N  N8  1  0.60016533  0.73938437  0.59557306  1
  N  N9  1  0.39988915  0.74888003  0.41528507  1
  N  N10  1  0.10014936  0.76061913  0.90443871  1
  N  N11  1  0.89982226  0.75109197  0.08466508  1
  H  H12  1  0.50830584  0.37697463  0.49368069  1
  H  H13  1  0.66643790  0.27366858  0.65646951  1
  H  H14  1  0.60216578  0.13505396  0.59101612  1
  H  H15  1  0.33463466  0.28598082  0.32825432  1
  H  H16  1  0.38518615  0.14330683  0.38305292  1
  H  H17  1  0.00846717  0.12299338  0.00638838  1
  H  H18  1  0.16659211  0.22627995  0.84356026  1
  H  H19  1  0.10229894  0.36492223  0.90894815  1
  H  H20  1  0.83477591  0.21401643  0.17178052  1
  H  H21  1  0.88531843  0.35669487  0.11691088  1
  H  H22  1  0.49553246  0.89248316  0.52904573  1
  H  H23  1  0.66869652  0.78633605  0.67232705  1
  H  H24  1  0.60831514  0.64942430  0.59678717  1
  H  H25  1  0.32634492  0.80217553  0.35507397  1
  H  H26  1  0.39720756  0.66048902  0.38810833  1
  H  H27  1  0.99552947  0.60748903  0.97093728  1
  H  H28  1  0.16868953  0.71369433  0.82770746  1
  H  H29  1  0.10825134  0.85060113  0.90324515  1
  H  H30  1  0.82627681  0.69774928  0.14488378  1
  H  H31  1  0.89709598  0.83947720  0.11185955  1
  B  B32  1  0.60803712  0.99566264  0.01189244  1
  B  B33  1  0.10800020  0.50443168  0.48813018  1
  P  P34  1  0.01139307  0.01297739  0.49646534  1
  P  P35  1  0.51134858  0.48711228  0.00350157  1
  I  I36  1  0.49820762  0.17268943  0.99034299  1
  I  I37  1  0.17371296  0.97717537  0.24991928  1
  I  I38  1  0.72119431  0.00493408  0.26397794  1
  I  I39  1  0.99811149  0.32742938  0.50973185  1
  I  I40  1  0.22628058  0.02515276  0.69573550  1
  I  I41  1  0.78462595  0.97942617  0.80706504  1
  I  I42  1  0.48256247  0.82444809  0.00008432  1
  I  I43  1  0.67368439  0.52274566  0.25008811  1
  I  I44  1  0.22114592  0.49506313  0.23604488  1
  I  I45  1  0.98257179  0.67565150  0.49989816  1
  I  I46  1  0.28460352  0.52064536  0.69293103  1
  I  I47  1  0.72623569  0.47480256  0.80426721  1
