# generated using pymatgen
data_AlBH10C2(I3N2)2
_symmetry_space_group_name_H-M   'P 1'
_cell_length_a   8.78010412
_cell_length_b   10.04543749
_cell_length_c   10.33005251
_cell_angle_alpha   92.40019566
_cell_angle_beta   89.66240890
_cell_angle_gamma   87.65804988
_symmetry_Int_Tables_number   1
_chemical_formula_structural   AlBH10C2(I3N2)2
_chemical_formula_sum   'Al2 B2 H20 C4 I12 N8'
_cell_volume   909.52444434
_cell_formula_units_Z   2
loop_
 _symmetry_equiv_pos_site_id
 _symmetry_equiv_pos_as_xyz
  1  'x, y, z'
loop_
 _atom_site_type_symbol
 _atom_site_label
 _atom_site_symmetry_multiplicity
 _atom_site_fract_x
 _atom_site_fract_y
 _atom_site_fract_z
 _atom_site_occupancy
  C  C0  1  0.51851322  0.25537016  0.51752908  1
  C  C1  1  0.03211249  0.25540666  0.04545387  1
  C  C2  1  0.53678518  0.76825710  0.55652288  1
  C  C3  1  0.07339466  0.85005203  0.98037365  1
  N  N4  1  0.59796833  0.15548196  0.56236851  1
  N  N5  1  0.39320600  0.24496554  0.44767009  1
  N  N6  1  0.06884374  0.31084851  0.93773769  1
  N  N7  1  0.89441036  0.26131367  0.09691286  1
  N  N8  1  0.59597282  0.88354523  0.57161051  1
  N  N9  1  0.41246150  0.74490635  0.48447837  1
  N  N10  1  0.08219344  0.73036974  0.93450547  1
  N  N11  1  0.87097617  0.61326319  0.08550454  1
  H  H12  1  0.55823694  0.35553546  0.53875631  1
  H  H13  1  0.69114602  0.17874717  0.61637623  1
  H  H14  1  0.57516206  0.05057083  0.55397346  1
  H  H15  1  0.32769231  0.32843601  0.43134109  1
  H  H16  1  0.33876764  0.15724996  0.43892755  1
  H  H17  1  0.12120940  0.19926512  0.09585746  1
  H  H18  1  0.17578296  0.29567381  0.89918622  1
  H  H19  1  0.99026125  0.36301833  0.88388613  1
  H  H20  1  0.87413910  0.21685572  0.18191670  1
  H  H21  1  0.80423532  0.30895283  0.05426115  1
  H  H22  1  0.34882382  0.82343384  0.45196259  1
  H  H23  1  0.69138643  0.87474500  0.62792875  1
  H  H24  1  0.58745346  0.67869486  0.59963358  1
  H  H25  1  0.35478198  0.66116991  0.49935971  1
  H  H26  1  0.51198721  0.44832970  0.98958581  1
  H  H27  1  0.95257146  0.64239455  0.01743664  1
  H  H28  1  0.16486026  0.71395361  0.86365843  1
  H  H29  1  0.14648854  0.92917809  0.94911791  1
  H  H30  1  0.76090342  0.63992147  0.06278099  1
  H  H31  1  0.98815399  0.87688565  0.05655511  1
  B  B32  1  0.48603790  0.03768459  0.18575205  1
  B  B33  1  0.90793811  0.56076327  0.20204657  1
  Al  Al34  1  0.02559264  0.02617321  0.63460063  1
  Al  Al35  1  0.52179522  0.53435509  0.86465972  1
  I  I36  1  0.48171733  0.21078972  0.07266577  1
  I  I37  1  0.27189910  0.96082301  0.24125853  1
  I  I38  1  0.69459782  0.95800059  0.25687526  1
  I  I39  1  0.98886102  0.21333521  0.47285724  1
  I  I40  1  0.28675245  0.05105299  0.73379801  1
  I  I41  1  0.82605854  0.04954245  0.81784150  1
  I  I42  1  0.52256235  0.77938861  0.93302746  1
  I  I43  1  0.72647293  0.51299176  0.33263602  1
  I  I44  1  0.14892729  0.52522200  0.24682007  1
  I  I45  1  0.00251910  0.79947411  0.51896379  1
  I  I46  1  0.29396104  0.48969678  0.71286380  1
  I  I47  1  0.77344502  0.47397754  0.74026900  1
