# generated using pymatgen
data_BH10C2I6N5
_symmetry_space_group_name_H-M   'P 1'
_cell_length_a   8.75353513
_cell_length_b   11.31168006
_cell_length_c   8.07494396
_cell_angle_alpha   90.88577969
_cell_angle_beta   90.00038965
_cell_angle_gamma   89.99843366
_symmetry_Int_Tables_number   1
_chemical_formula_structural   BH10C2I6N5
_chemical_formula_sum   'B2 H20 C4 I12 N10'
_cell_volume   799.46270370
_cell_formula_units_Z   2
loop_
 _symmetry_equiv_pos_site_id
 _symmetry_equiv_pos_as_xyz
  1  'x, y, z'
loop_
 _atom_site_type_symbol
 _atom_site_label
 _atom_site_symmetry_multiplicity
 _atom_site_fract_x
 _atom_site_fract_y
 _atom_site_fract_z
 _atom_site_occupancy
  C  C0  1  0.50185215  0.28246843  0.48643840  1
  C  C1  1  0.00184908  0.21750105  0.01354544  1
  C  C2  1  0.49839846  0.79417812  0.51790819  1
  C  C3  1  0.99844183  0.70579634  0.98208586  1
  N  N4  1  0.59635067  0.22761573  0.58527087  1
  N  N5  1  0.39929085  0.23199703  0.39077617  1
  N  N6  1  0.09632416  0.27237495  0.91476714  1
  N  N7  1  0.89929483  0.26794646  0.10930776  1
  N  N8  1  0.60316749  0.73891906  0.60353143  1
  N  N9  1  0.39896151  0.74375655  0.41858989  1
  N  N10  1  0.10318166  0.76105537  0.89646813  1
  N  N11  1  0.89895859  0.75622081  0.08138886  1
  H  H12  1  0.51071583  0.37861021  0.48262604  1
  H  H13  1  0.66029693  0.27808023  0.66643234  1
  H  H14  1  0.59498223  0.13852423  0.60226717  1
  H  H15  1  0.33531507  0.28437475  0.31522856  1
  H  H16  1  0.38094823  0.14276320  0.38382705  1
  H  H17  1  0.01067998  0.12134987  0.01723210  1
  H  H18  1  0.16028111  0.22194331  0.83357277  1
  H  H19  1  0.09499748  0.36148039  0.89788950  1
  H  H20  1  0.83531923  0.21553130  0.18480450  1
  H  H21  1  0.88096418  0.35718594  0.11636230  1
  H  H22  1  0.49332982  0.89027592  0.53090374  1
  H  H23  1  0.67161498  0.78791412  0.68102595  1
  H  H24  1  0.61093628  0.64886899  0.61113636  1
  H  H25  1  0.32307490  0.79627488  0.35561274  1
  H  H26  1  0.40047725  0.65533631  0.39016384  1
  H  H27  1  0.99342292  0.60969483  0.96910391  1
  H  H28  1  0.17164345  0.71206604  0.81897945  1
  H  H29  1  0.11089404  0.85109967  0.88882955  1
  H  H30  1  0.82309929  0.70369233  0.14439787  1
  H  H31  1  0.90044114  0.84464906  0.10981013  1
  B  B32  1  0.61183463  0.00025448  0.01460916  1
  B  B33  1  0.11188201  0.49982724  0.48539163  1
  N  N34  1  0.04850785  0.00949243  0.49019579  1
  N  N35  1  0.54857314  0.49070732  0.00970136  1
  I  I36  1  0.48369228  0.16948725  0.98606010  1
  I  I37  1  0.17129032  0.97372342  0.27114191  1
  I  I38  1  0.72880386  0.00937543  0.26895361  1
  I  I39  1  0.98363814  0.33065888  0.51397339  1
  I  I40  1  0.21462098  0.02606512  0.67751775  1
  I  I41  1  0.78652382  0.98839168  0.80193612  1
  I  I42  1  0.47477923  0.83358815  0.00318893  1
  I  I43  1  0.67131174  0.52629565  0.22881896  1
  I  I44  1  0.22885439  0.49059564  0.23104955  1
  I  I45  1  0.97489896  0.66655468  0.49677033  1
  I  I46  1  0.28657258  0.51159773  0.69805531  1
  I  I47  1  0.71472977  0.47390239  0.82245683  1
