# generated using pymatgen
data_H10PbC3(I3N2)2
_symmetry_space_group_name_H-M   'P 1'
_cell_length_a   8.70056151
_cell_length_b   11.80182823
_cell_length_c   8.50316018
_cell_angle_alpha   88.95812128
_cell_angle_beta   89.99936089
_cell_angle_gamma   90.00192944
_symmetry_Int_Tables_number   1
_chemical_formula_structural   H10PbC3(I3N2)2
_chemical_formula_sum   'H20 Pb2 C6 I12 N8'
_cell_volume   872.98166813
_cell_formula_units_Z   2
loop_
 _symmetry_equiv_pos_site_id
 _symmetry_equiv_pos_as_xyz
  1  'x, y, z'
loop_
 _atom_site_type_symbol
 _atom_site_label
 _atom_site_symmetry_multiplicity
 _atom_site_fract_x
 _atom_site_fract_y
 _atom_site_fract_z
 _atom_site_occupancy
  C  C0  1  0.49904046  0.28681262  0.49532119  1
  C  C1  1  0.99904036  0.21318451  0.00469322  1
  C  C2  1  0.50219945  0.79153481  0.49956052  1
  C  C3  1  0.00215552  0.70846075  1.00044012  1
  N  N4  1  0.60248838  0.23714809  0.58508175  1
  N  N5  1  0.40756627  0.23575833  0.39666772  1
  N  N6  1  0.10250700  0.26284936  0.91495821  1
  N  N7  1  0.90759868  0.26423234  0.10338835  1
  N  N8  1  0.59530150  0.74256812  0.60116895  1
  N  N9  1  0.40188758  0.73921145  0.41137302  1
  N  N10  1  0.09528542  0.75742671  0.89885889  1
  N  N11  1  0.90179631  0.76078092  0.08858235  1
  H  H12  1  0.48681726  0.37854456  0.50404878  1
  H  H13  1  0.66726933  0.28497244  0.65864730  1
  H  H14  1  0.61940202  0.15152411  0.59033119  1
  H  H15  1  0.33046890  0.28368128  0.33334855  1
  H  H16  1  0.41268930  0.15113995  0.37469574  1
  H  H17  1  0.98676529  0.12145669  0.99591845  1
  H  H18  1  0.16726371  0.21503384  0.84134091  1
  H  H19  1  0.11947671  0.34847677  0.90973407  1
  H  H20  1  0.83048787  0.21630985  0.16667775  1
  H  H21  1  0.91277476  0.34884308  0.12538434  1
  H  H22  1  0.51023300  0.88349016  0.48636671  1
  H  H23  1  0.66692777  0.79240922  0.66616603  1
  H  H24  1  0.59618479  0.65712252  0.62328649  1
  H  H25  1  0.33789654  0.78608935  0.33322224  1
  H  H26  1  0.38513283  0.65340282  0.41388255  1
  H  H27  1  0.01019344  0.61650897  0.01366879  1
  H  H28  1  0.16694639  0.70759321  0.83389818  1
  H  H29  1  0.09618000  0.84287277  0.87672488  1
  H  H30  1  0.83778602  0.71389943  0.16672015  1
  H  H31  1  0.88502936  0.84658458  0.08603160  1
  C  C32  1  0.42812065  0.96664682  0.99355715  1
  C  C33  1  0.92813978  0.53337651  0.50642934  1
  Pb  Pb34  1  0.98759165  0.00400215  0.49889233  1
  Pb  Pb35  1  0.48762341  0.49602531  0.00108597  1
  I  I36  1  0.51541757  0.24803067  0.99224753  1
  I  I37  1  0.24099407  0.98137194  0.18595571  1
  I  I38  1  0.72048457  0.01266069  0.27336889  1
  I  I39  1  0.01538123  0.25199963  0.50776914  1
  I  I40  1  0.30474721  0.00176968  0.75634549  1
  I  I41  1  0.78769034  0.98449096  0.78481493  1
  I  I42  1  0.49349388  0.78191647  0.00130543  1
  I  I43  1  0.74100872  0.51862673  0.31404118  1
  I  I44  1  0.22050979  0.48734937  0.22661943  1
  I  I45  1  0.99354030  0.71810537  0.49866742  1
  I  I46  1  0.28771684  0.51552211  0.71517401  1
  I  I47  1  0.80476713  0.49824497  0.74364180  1
