# generated using pymatgen
data_HgH10C3(I3N2)2
_symmetry_space_group_name_H-M   'P 1'
_cell_length_a   8.74410579
_cell_length_b   11.40002755
_cell_length_c   8.64154129
_cell_angle_alpha   90.06805354
_cell_angle_beta   89.99822005
_cell_angle_gamma   89.99096793
_symmetry_Int_Tables_number   1
_chemical_formula_structural   HgH10C3(I3N2)2
_chemical_formula_sum   'Hg2 H20 C6 I12 N8'
_cell_volume   861.41454644
_cell_formula_units_Z   2
loop_
 _symmetry_equiv_pos_site_id
 _symmetry_equiv_pos_as_xyz
  1  'x, y, z'
loop_
 _atom_site_type_symbol
 _atom_site_label
 _atom_site_symmetry_multiplicity
 _atom_site_fract_x
 _atom_site_fract_y
 _atom_site_fract_z
 _atom_site_occupancy
  C  C0  1  0.51052748  0.28607938  0.49070851  1
  C  C1  1  0.01037725  0.21395423  0.00925248  1
  C  C2  1  0.50278200  0.79779012  0.50072686  1
  C  C3  1  0.00285826  0.70213295  0.99923745  1
  N  N4  1  0.60347476  0.23347631  0.58792931  1
  N  N5  1  0.42452180  0.23411437  0.38736397  1
  N  N6  1  0.10358550  0.26656445  0.91226360  1
  N  N7  1  0.92442854  0.26587343  0.11264200  1
  N  N8  1  0.59156654  0.74638601  0.60223495  1
  N  N9  1  0.40543452  0.74456256  0.40907978  1
  N  N10  1  0.09172279  0.75352228  0.89777651  1
  N  N11  1  0.90552236  0.75536996  0.09087630  1
  H  H12  1  0.50395621  0.38150111  0.49709311  1
  H  H13  1  0.66371216  0.28324863  0.66528519  1
  H  H14  1  0.60697246  0.14472759  0.60228933  1
  H  H15  1  0.35199668  0.28439636  0.32223470  1
  H  H16  1  0.42331620  0.14567812  0.36835162  1
  H  H17  1  0.00355320  0.11854301  0.00251982  1
  H  H18  1  0.16382052  0.21683019  0.83484459  1
  H  H19  1  0.10745275  0.35534647  0.89832685  1
  H  H20  1  0.85167354  0.21561007  0.17753866  1
  H  H21  1  0.92340596  0.35430005  0.13190786  1
  H  H22  1  0.51167015  0.89280942  0.49047850  1
  H  H23  1  0.66138422  0.79704700  0.67041248  1
  H  H24  1  0.58936751  0.65814264  0.62333436  1
  H  H25  1  0.34283721  0.79355887  0.33275771  1
  H  H26  1  0.38992444  0.65569024  0.40684351  1
  H  H27  1  0.01169510  0.60709106  0.00942027  1
  H  H28  1  0.16149879  0.70284045  0.82955201  1
  H  H29  1  0.08955330  0.84178022  0.87671854  1
  H  H30  1  0.84288410  0.70637433  0.16717904  1
  H  H31  1  0.89006975  0.84425856  0.09317614  1
  C  C32  1  0.42435624  0.95836412  0.99826346  1
  C  C33  1  0.92442567  0.54161249  0.50172908  1
  Hg  Hg34  1  0.90325271  0.03564876  0.51673104  1
  Hg  Hg35  1  0.40361332  0.46486776  0.98324741  1
  I  I36  1  0.55274453  0.25548301  0.99402246  1
  I  I37  1  0.23827632  0.98080275  0.18528647  1
  I  I38  1  0.71761687  0.00734852  0.25827147  1
  I  I39  1  0.05295393  0.24467155  0.50599604  1
  I  I40  1  0.30247359  0.99893051  0.76757110  1
  I  I41  1  0.78708037  0.97897918  0.80533984  1
  I  I42  1  0.49013029  0.76620736  0.00179298  1
  I  I43  1  0.73836492  0.51918966  0.31462266  1
  I  I44  1  0.21763908  0.49262019  0.24167209  1
  I  I45  1  0.98995673  0.73375373  0.49825163  1
  I  I46  1  0.28711638  0.52093517  0.69452299  1
  I  I47  1  0.80247235  0.50104778  0.73242801  1
