# generated using pymatgen
data_H10PtC3(I3N2)2
_symmetry_space_group_name_H-M   'P 1'
_cell_length_a   8.66012421
_cell_length_b   10.85396488
_cell_length_c   8.65017606
_cell_angle_alpha   89.74401023
_cell_angle_beta   90.00052996
_cell_angle_gamma   90.00659054
_symmetry_Int_Tables_number   1
_chemical_formula_structural   H10PtC3(I3N2)2
_chemical_formula_sum   'H20 Pt2 C6 I12 N8'
_cell_volume   813.07974542
_cell_formula_units_Z   2
loop_
 _symmetry_equiv_pos_site_id
 _symmetry_equiv_pos_as_xyz
  1  'x, y, z'
loop_
 _atom_site_type_symbol
 _atom_site_label
 _atom_site_symmetry_multiplicity
 _atom_site_fract_x
 _atom_site_fract_y
 _atom_site_fract_z
 _atom_site_occupancy
  C  C0  1  0.50043567  0.29021025  0.49519151  1
  C  C1  1  0.00020065  0.20980475  0.00478800  1
  C  C2  1  0.50876457  0.79116348  0.50236438  1
  C  C3  1  0.00858822  0.70877918  0.99751699  1
  N  N4  1  0.59392084  0.23719546  0.59440315  1
  N  N5  1  0.41214671  0.23397011  0.39446791  1
  N  N6  1  0.09378219  0.26278973  0.90561670  1
  N  N7  1  0.91200578  0.26606200  0.10554807  1
  N  N8  1  0.60763193  0.73436682  0.59262232  1
  N  N9  1  0.40646315  0.73877719  0.41218211  1
  N  N10  1  0.10758976  0.76555646  0.90735632  1
  N  N11  1  0.90618132  0.76117739  0.08753186  1
  H  H12  1  0.49480455  0.39049605  0.49687176  1
  H  H13  1  0.65697565  0.29209208  0.66726145  1
  H  H14  1  0.61410818  0.14441028  0.59914363  1
  H  H15  1  0.34627750  0.28717239  0.32141711  1
  H  H16  1  0.40287029  0.14045203  0.38645981  1
  H  H17  1  0.99436724  0.10952737  0.00299161  1
  H  H18  1  0.15671626  0.20787126  0.83270087  1
  H  H19  1  0.11410236  0.35556119  0.90089977  1
  H  H20  1  0.84604036  0.21287301  0.17854168  1
  H  H21  1  0.90289094  0.35958299  0.11364422  1
  H  H22  1  0.51194517  0.89153676  0.50255830  1
  H  H23  1  0.68365936  0.78718013  0.65495363  1
  H  H24  1  0.61436417  0.64075735  0.60307722  1
  H  H25  1  0.33549524  0.79399665  0.34689605  1
  H  H26  1  0.39607424  0.64559578  0.39839011  1
  H  H27  1  0.01174632  0.60840503  0.99735350  1
  H  H28  1  0.18370494  0.71272506  0.84514688  1
  H  H29  1  0.11438399  0.85917284  0.89685337  1
  H  H30  1  0.83514542  0.70595890  0.15273568  1
  H  H31  1  0.89582069  0.85434857  0.10126088  1
  C  C32  1  0.36902791  0.99620971  0.00301922  1
  C  C33  1  0.86897404  0.50394999  0.49710606  1
  Pt  Pt34  1  0.01014004  0.00043659  0.50209057  1
  Pt  Pt35  1  0.51032126  0.49964571  0.99810954  1
  I  I36  1  0.49985294  0.16503146  0.99800688  1
  I  I37  1  0.18044318  0.98450422  0.24706392  1
  I  I38  1  0.76648996  0.01118312  0.31931614  1
  I  I39  1  0.00009909  0.33531505  0.50213951  1
  I  I40  1  0.25781887  0.02067412  0.67401206  1
  I  I41  1  0.82525505  0.98594677  0.74657252  1
  I  I42  1  0.50575838  0.83069395  0.00126700  1
  I  I43  1  0.68074267  0.51539799  0.25309577  1
  I  I44  1  0.26666144  0.48893366  0.18087444  1
  I  I45  1  0.00596240  0.66929586  0.49907542  1
  I  I46  1  0.32548446  0.51403683  0.75360844  1
  I  I47  1  0.75778397  0.47923939  0.82600042  1
