# generated using pymatgen
data_MgHgH12C2(I3N)2
_symmetry_space_group_name_H-M   'P 1'
_cell_length_a   7.52620541
_cell_length_b   13.12680752
_cell_length_c   8.71126476
_cell_angle_alpha   89.85792569
_cell_angle_beta   90.00145789
_cell_angle_gamma   89.99900801
_symmetry_Int_Tables_number   1
_chemical_formula_structural   MgHgH12C2(I3N)2
_chemical_formula_sum   'Mg2 Hg2 H24 C4 I12 N4'
_cell_volume   860.62718832
_cell_formula_units_Z   2
loop_
 _symmetry_equiv_pos_site_id
 _symmetry_equiv_pos_as_xyz
  1  'x, y, z'
loop_
 _atom_site_type_symbol
 _atom_site_label
 _atom_site_symmetry_multiplicity
 _atom_site_fract_x
 _atom_site_fract_y
 _atom_site_fract_z
 _atom_site_occupancy
  C  C0  1  0.42368131  0.25135839  0.36905363  1
  C  C1  1  0.93294303  0.24965323  0.12935896  1
  C  C2  1  0.56703219  0.74969312  0.62942113  1
  C  C3  1  0.07638921  0.75140755  0.86909372  1
  N  N4  1  0.50471605  0.26344187  0.52321884  1
  N  N5  1  0.01488840  0.25857007  0.97487665  1
  N  N6  1  0.48508267  0.75867008  0.47494443  1
  N  N7  1  0.99529985  0.76335380  0.02325853  1
  H  H8  1  0.52912888  0.25470604  0.28273013  1
  H  H9  1  0.35528251  0.17784047  0.36432079  1
  H  H10  1  0.33045896  0.31436096  0.35072679  1
  H  H11  1  0.60679238  0.21178831  0.54213798  1
  H  H12  1  0.56032392  0.33574992  0.53210674  1
  H  H13  1  0.41396048  0.25430882  0.61183192  1
  H  H14  1  0.03791306  0.25361090  0.21598510  1
  H  H15  1  0.86334639  0.17660724  0.13686425  1
  H  H16  1  0.84059312  0.31331729  0.14490600  1
  H  H17  1  0.11607024  0.20583855  0.95940083  1
  H  H18  1  0.07060040  0.33026458  0.96109793  1
  H  H19  1  0.92444758  0.24793217  0.88610703  1
  H  H20  1  0.46208762  0.75373573  0.71605399  1
  H  H21  1  0.63643742  0.67657829  0.63692636  1
  H  H22  1  0.65954902  0.81326893  0.64495658  1
  H  H23  1  0.42959617  0.83042067  0.46115821  1
  H  H24  1  0.38373053  0.70604238  0.45948728  1
  H  H25  1  0.57547285  0.74793328  0.38616320  1
  H  H26  1  0.97091869  0.75465241  0.78276471  1
  H  H27  1  0.16940183  0.81449278  0.85080101  1
  H  H28  1  0.14499752  0.67794319  0.86432575  1
  H  H29  1  0.93939329  0.83559534  0.03215683  1
  H  H30  1  0.89346082  0.71156228  0.04216761  1
  H  H31  1  0.08610075  0.75435000  0.11187123  1
  Mg  Mg32  1  0.55713575  0.94963502  0.07714893  1
  Mg  Mg33  1  0.94285625  0.44964956  0.57712779  1
  Hg  Hg34  1  0.05346437  0.94924457  0.43929393  1
  Hg  Hg35  1  0.44653222  0.44924386  0.93930312  1
  I  I36  1  0.49790150  0.23671916  0.92140709  1
  I  I37  1  0.21481506  0.01393801  0.13372669  1
  I  I38  1  0.70280512  0.01575006  0.35737753  1
  I  I39  1  0.98132788  0.24474900  0.57770154  1
  I  I40  1  0.30110243  0.99873096  0.65569903  1
  I  I41  1  0.78902237  0.99175908  0.85260948  1
  I  I42  1  0.51863535  0.74473716  0.07778841  1
  I  I43  1  0.71096823  0.49178284  0.35258206  1
  I  I44  1  0.19886450  0.49866919  0.15570352  1
  I  I45  1  0.00211877  0.73671583  0.42145502  1
  I  I46  1  0.28518142  0.51395062  0.63373646  1
  I  I47  1  0.79719533  0.51575472  0.85736186  1
