# generated using pymatgen
data_HfH10C3(I3N2)2
_symmetry_space_group_name_H-M   'P 1'
_cell_length_a   8.51304010
_cell_length_b   10.09877480
_cell_length_c   9.48589395
_cell_angle_alpha   93.39527886
_cell_angle_beta   86.66130022
_cell_angle_gamma   93.14446963
_symmetry_Int_Tables_number   1
_chemical_formula_structural   HfH10C3(I3N2)2
_chemical_formula_sum   'Hf2 H20 C6 I12 N8'
_cell_volume   811.61927159
_cell_formula_units_Z   2
loop_
 _symmetry_equiv_pos_site_id
 _symmetry_equiv_pos_as_xyz
  1  'x, y, z'
loop_
 _atom_site_type_symbol
 _atom_site_label
 _atom_site_symmetry_multiplicity
 _atom_site_fract_x
 _atom_site_fract_y
 _atom_site_fract_z
 _atom_site_occupancy
  C  C0  1  0.58215650  0.31214874  0.52581154  1
  C  C1  1  0.91720841  0.16116751  0.97582151  1
  C  C2  1  0.45740746  0.75029926  0.48652234  1
  C  C3  1  0.01747467  0.74939936  0.00812078  1
  N  N4  1  0.64555518  0.24130224  0.62266953  1
  N  N5  1  0.49697784  0.26928508  0.42300023  1
  N  N6  1  0.96062026  0.23989697  0.85513656  1
  N  N7  1  0.91416746  0.24020602  0.10871021  1
  N  N8  1  0.50174912  0.70621524  0.60565606  1
  N  N9  1  0.35513569  0.68969328  0.40456928  1
  N  N10  1  0.09099177  0.78424398  0.88908445  1
  N  N11  1  0.89798978  0.80800963  0.07327859  1
  H  H12  1  0.61413890  0.41900216  0.53684247  1
  H  H13  1  0.70052244  0.28727506  0.70602844  1
  H  H14  1  0.61420474  0.14332368  0.62961698  1
  H  H15  1  0.31800605  0.36331846  0.41218257  1
  H  H16  1  0.47215934  0.16846397  0.42254524  1
  H  H17  1  0.00993208  0.08798249  0.98095935  1
  H  H18  1  0.07916819  0.23893653  0.83056165  1
  H  H19  1  0.93498394  0.33721307  0.87642484  1
  H  H20  1  0.86367423  0.18744392  0.19040671  1
  H  H21  1  0.84858128  0.32188242  0.10312919  1
  H  H22  1  0.51374261  0.84468706  0.45478342  1
  H  H23  1  0.58162598  0.76166494  0.66332023  1
  H  H24  1  0.45335840  0.62081403  0.64745670  1
  H  H25  1  0.33505777  0.73470073  0.31425466  1
  H  H26  1  0.29172527  0.59319065  0.42146273  1
  H  H27  1  0.06143859  0.66416549  0.05706311  1
  H  H28  1  0.18230259  0.73054855  0.84752316  1
  H  H29  1  0.05567892  0.85895167  0.83182891  1
  H  H30  1  0.84958304  0.76827446  0.16338641  1
  H  H31  1  0.84405059  0.89052902  0.04003190  1
  C  C32  1  0.76782279  0.07031147  0.96938216  1
  C  C33  1  0.22109393  0.43171616  0.40045058  1
  Hf  Hf34  1  0.01929011  0.01186719  0.48284757  1
  Hf  Hf35  1  0.52300395  0.50517015  0.00868702  1
  I  I36  1  0.55266294  0.19444659  0.99285773  1
  I  I37  1  0.21264662  0.02256381  0.24715882  1
  I  I38  1  0.73729556  0.00865796  0.34617287  1
  I  I39  1  0.01188749  0.32069408  0.48273045  1
  I  I40  1  0.25982350  0.04143942  0.67231108  1
  I  I41  1  0.78341544  0.96438621  0.75255876  1
  I  I42  1  0.47188618  0.77278927  0.02870626  1
  I  I43  1  0.69610324  0.52351844  0.24409982  1
  I  I44  1  0.22701651  0.42373487  0.16526944  1
  I  I45  1  0.98333689  0.73911172  0.49146343  1
  I  I46  1  0.30018670  0.45601014  0.79518644  1
  I  I47  1  0.77117839  0.53940979  0.81203259  1
