# generated using pymatgen
data_BaH10C3(I3N2)2
_symmetry_space_group_name_H-M   'P 1'
_cell_length_a   8.54683256
_cell_length_b   12.11442926
_cell_length_c   8.79498988
_cell_angle_alpha   90.94905106
_cell_angle_beta   89.98980765
_cell_angle_gamma   89.98975354
_symmetry_Int_Tables_number   1
_chemical_formula_structural   BaH10C3(I3N2)2
_chemical_formula_sum   'Ba2 H20 C6 I12 N8'
_cell_volume   910.50828689
_cell_formula_units_Z   2
loop_
 _symmetry_equiv_pos_site_id
 _symmetry_equiv_pos_as_xyz
  1  'x, y, z'
loop_
 _atom_site_type_symbol
 _atom_site_label
 _atom_site_symmetry_multiplicity
 _atom_site_fract_x
 _atom_site_fract_y
 _atom_site_fract_z
 _atom_site_occupancy
  C  C0  1  0.47250265  0.25598404  0.51124257  1
  C  C1  1  0.97227493  0.24416863  0.98865671  1
  C  C2  1  0.51690341  0.78326268  0.48775968  1
  C  C3  1  0.01663191  0.71658421  0.01234040  1
  N  N4  1  0.59730832  0.21411646  0.57487324  1
  N  N5  1  0.43149867  0.24029392  0.36819068  1
  N  N6  1  0.09706399  0.28603554  0.92503714  1
  N  N7  1  0.93130669  0.25972826  0.13178508  1
  N  N8  1  0.57470024  0.74975342  0.61701129  1
  N  N9  1  0.39885943  0.73582808  0.41552464  1
  N  N10  1  0.07458389  0.75016396  0.88316455  1
  N  N11  1  0.89859683  0.76407888  0.08457214  1
  H  H12  1  0.39662921  0.30866040  0.58169562  1
  H  H13  1  0.61304733  0.22550410  0.68997695  1
  H  H14  1  0.67236901  0.16327907  0.51564686  1
  H  H15  1  0.33766419  0.28299086  0.32716863  1
  H  H16  1  0.49724077  0.19480667  0.29244424  1
  H  H17  1  0.89632695  0.19160336  0.91815086  1
  H  H18  1  0.11278233  0.27471974  0.80990125  1
  H  H19  1  0.17215904  0.33677816  0.98429641  1
  H  H20  1  0.83745998  0.21703169  0.17275674  1
  H  H21  1  0.99709746  0.30506128  0.20757882  1
  H  H22  1  0.57049726  0.85565240  0.43519502  1
  H  H23  1  0.65735006  0.79775258  0.67160042  1
  H  H24  1  0.52619262  0.68330072  0.67126680  1
  H  H25  1  0.37449647  0.75943049  0.30687694  1
  H  H26  1  0.34580439  0.66599022  0.45544839  1
  H  H27  1  0.07008134  0.64411399  0.06481604  1
  H  H28  1  0.15723547  0.70211174  0.82854644  1
  H  H29  1  0.02621389  0.81668066  0.82898549  1
  H  H30  1  0.87411111  0.74042974  0.19318774  1
  H  H31  1  0.84564816  0.83399942  0.04474432  1
  C  C32  1  0.41562690  0.97697150  0.98499745  1
  C  C33  1  0.91579493  0.52309977  0.51495103  1
  Ba  Ba34  1  0.03526202  0.99154916  0.48760547  1
  Ba  Ba35  1  0.53508989  0.50843650  0.01242171  1
  I  I36  1  0.52975385  0.24149201  0.96950934  1
  I  I37  1  0.19197314  0.00797197  0.11716609  1
  I  I38  1  0.71526324  0.01737014  0.27572432  1
  I  I39  1  0.02979989  0.25850030  0.53042659  1
  I  I40  1  0.34516918  0.98960902  0.73526309  1
  I  I41  1  0.81283986  0.96917438  0.79326095  1
  I  I42  1  0.47273395  0.79072335  0.02454115  1
  I  I43  1  0.69230342  0.49212118  0.38255839  1
  I  I44  1  0.21515238  0.48255331  0.22436423  1
  I  I45  1  0.97288016  0.70931776  0.47549566  1
  I  I46  1  0.31276541  0.53080058  0.70676113  1
  I  I47  1  0.84497312  0.51047666  0.76461603  1
