# generated using pymatgen
data_SnH10C3(I3N2)2
_symmetry_space_group_name_H-M   'P 1'
_cell_length_a   8.68028853
_cell_length_b   11.72450797
_cell_length_c   8.44375685
_cell_angle_alpha   88.94269113
_cell_angle_beta   90.00028033
_cell_angle_gamma   90.00311195
_symmetry_Int_Tables_number   1
_chemical_formula_structural   SnH10C3(I3N2)2
_chemical_formula_sum   'Sn2 H20 C6 I12 N8'
_cell_volume   859.19265495
_cell_formula_units_Z   2
loop_
 _symmetry_equiv_pos_site_id
 _symmetry_equiv_pos_as_xyz
  1  'x, y, z'
loop_
 _atom_site_type_symbol
 _atom_site_label
 _atom_site_symmetry_multiplicity
 _atom_site_fract_x
 _atom_site_fract_y
 _atom_site_fract_z
 _atom_site_occupancy
  C  C0  1  0.49767461  0.28791582  0.49483422  1
  C  C1  1  0.99772004  0.21207190  0.00517610  1
  C  C2  1  0.50292363  0.79084695  0.50133973  1
  C  C3  1  0.00287879  0.70914399  0.99865780  1
  N  N4  1  0.59967347  0.23803564  0.58730724  1
  N  N5  1  0.40352733  0.23601335  0.39857982  1
  N  N6  1  0.09974303  0.26195243  0.91272970  1
  N  N7  1  0.90357743  0.26397126  0.10143171  1
  N  N8  1  0.59824777  0.74064693  0.60068951  1
  N  N9  1  0.40320451  0.73878764  0.41107950  1
  N  N10  1  0.09822966  0.75935097  0.89933106  1
  N  N11  1  0.90311430  0.76119331  0.08886359  1
  H  H12  1  0.48944940  0.38072898  0.49867302  1
  H  H13  1  0.66678356  0.28686538  0.65855251  1
  H  H14  1  0.61298229  0.15163242  0.59737073  1
  H  H15  1  0.32808674  0.28439928  0.33273855  1
  H  H16  1  0.40383788  0.15010826  0.38132828  1
  H  H17  1  0.98945981  0.11926132  0.00131821  1
  H  H18  1  0.16685228  0.21312359  0.84149323  1
  H  H19  1  0.11309499  0.34835341  0.90269962  1
  H  H20  1  0.82811710  0.21558443  0.16725941  1
  H  H21  1  0.90391994  0.34987555  0.11870793  1
  H  H22  1  0.50780826  0.88372125  0.49265441  1
  H  H23  1  0.66961924  0.79013578  0.66736472  1
  H  H24  1  0.60219958  0.65424563  0.61920545  1
  H  H25  1  0.33723857  0.78686120  0.33490449  1
  H  H26  1  0.38978579  0.65219140  0.40854788  1
  H  H27  1  0.00778425  0.61627156  0.00736852  1
  H  H28  1  0.16963185  0.70986878  0.83268964  1
  H  H29  1  0.10217022  0.84575181  0.88079806  1
  H  H30  1  0.83714013  0.71311311  0.16502608  1
  H  H31  1  0.88967726  0.84778620  0.09137218  1
  C  C32  1  0.43013590  0.96710726  0.99498486  1
  C  C33  1  0.93017263  0.53293924  0.50502015  1
  Sn  Sn34  1  0.98645001  0.00426088  0.49805677  1
  Sn  Sn35  1  0.48646191  0.49579169  0.00193887  1
  I  I36  1  0.51256209  0.25290111  0.99504316  1
  I  I37  1  0.24443477  0.98080170  0.19159252  1
  I  I38  1  0.72738970  0.01099260  0.27516770  1
  I  I39  1  0.01250628  0.24715184  0.50499723  1
  I  I40  1  0.30239855  0.00262266  0.75772134  1
  I  I41  1  0.78899020  0.98686382  0.77699365  1
  I  I42  1  0.49451543  0.78045407  1.00055706  1
  I  I43  1  0.74446124  0.51920167  0.30842191  1
  I  I44  1  0.22739835  0.48901020  0.22482588  1
  I  I45  1  0.99456136  0.71959343  0.49941316  1
  I  I46  1  0.28899922  0.51314553  0.72300097  1
  I  I47  1  0.80242795  0.49741575  0.74227659  1
