# generated using pymatgen
data_CdH10C3(I3N2)2
_symmetry_space_group_name_H-M   'P 1'
_cell_length_a   8.93063309
_cell_length_b   11.06284649
_cell_length_c   8.71916413
_cell_angle_alpha   90.69001513
_cell_angle_beta   89.99682794
_cell_angle_gamma   89.98688382
_symmetry_Int_Tables_number   1
_chemical_formula_structural   CdH10C3(I3N2)2
_chemical_formula_sum   'Cd2 H20 C6 I12 N8'
_cell_volume   861.37542942
_cell_formula_units_Z   2
loop_
 _symmetry_equiv_pos_site_id
 _symmetry_equiv_pos_as_xyz
  1  'x, y, z'
loop_
 _atom_site_type_symbol
 _atom_site_label
 _atom_site_symmetry_multiplicity
 _atom_site_fract_x
 _atom_site_fract_y
 _atom_site_fract_z
 _atom_site_occupancy
  C  C0  1  0.51276744  0.28796920  0.49182273  1
  C  C1  1  0.01279777  0.21205220  0.00809111  1
  C  C2  1  0.49845044  0.79713837  0.50078783  1
  C  C3  1  0.99848284  0.70283689  0.99915144  1
  N  N4  1  0.60145582  0.23122162  0.58732787  1
  N  N5  1  0.43409415  0.23769285  0.38159491  1
  N  N6  1  0.10165035  0.26880734  0.91279279  1
  N  N7  1  0.93419071  0.26228742  0.11844128  1
  N  N8  1  0.58074620  0.74675745  0.60700265  1
  N  N9  1  0.40385451  0.74047735  0.41032474  1
  N  N10  1  0.08078436  0.75321593  0.89296464  1
  N  N11  1  0.90392601  0.75951101  0.08969272  1
  H  H12  1  0.50313803  0.38568547  0.50648336  1
  H  H13  1  0.65210526  0.27893759  0.67395400  1
  H  H14  1  0.61279551  0.13952250  0.58943643  1
  H  H15  1  0.36578147  0.29096645  0.31638614  1
  H  H16  1  0.43674795  0.14723765  0.35681825  1
  H  H17  1  0.00292638  0.11437850  0.99311986  1
  H  H18  1  0.15225615  0.22115201  0.82604375  1
  H  H19  1  0.11324678  0.36048751  0.91101414  1
  H  H20  1  0.86573898  0.20903132  0.18348041  1
  H  H21  1  0.93705936  0.35269477  0.14346303  1
  H  H22  1  0.51199407  0.89409631  0.48415188  1
  H  H23  1  0.64630835  0.80082164  0.67624183  1
  H  H24  1  0.57341154  0.65714107  0.63323622  1
  H  H25  1  0.34616098  0.78935367  0.33073173  1
  H  H26  1  0.38078415  0.65013693  0.41686097  1
  H  H27  1  0.01198048  0.60585256  0.01568283  1
  H  H28  1  0.14630689  0.69913515  0.82365480  1
  H  H29  1  0.07347645  0.84284444  0.86679462  1
  H  H30  1  0.84623432  0.71061584  0.16927153  1
  H  H31  1  0.88089301  0.84986433  0.08327435  1
  C  C32  1  0.42267265  0.95359294  0.99712255  1
  C  C33  1  0.92271319  0.54642253  0.50286207  1
  Cd  Cd34  1  0.89954129  0.99115167  0.51477464  1
  Cd  Cd35  1  0.39963254  0.50895204  0.98522302  1
  I  I36  1  0.57311059  0.30413068  0.99442936  1
  I  I37  1  0.24425641  0.97577069  0.17796297  1
  I  I38  1  0.70722902  0.01487661  0.26403910  1
  I  I39  1  0.07309089  0.19586452  0.50564788  1
  I  I40  1  0.30756372  0.99370423  0.77471760  1
  I  I41  1  0.77209425  0.98863155  0.80704787  1
  I  I42  1  0.51214854  0.75343899  0.00822840  1
  I  I43  1  0.74431175  0.52428201  0.32202637  1
  I  I44  1  0.20723988  0.48515301  0.23593456  1
  I  I45  1  0.01208158  0.74657425  0.49177546  1
  I  I46  1  0.27217256  0.51130879  0.69294949  1
  I  I47  1  0.80761375  0.50628514  0.72526856  1
