# generated using pymatgen
data_SrH10C3(I3N2)2
_symmetry_space_group_name_H-M   'P 1'
_cell_length_a   8.59451648
_cell_length_b   11.75347305
_cell_length_c   8.68820313
_cell_angle_alpha   89.72960803
_cell_angle_beta   89.99955916
_cell_angle_gamma   89.99931813
_symmetry_Int_Tables_number   1
_chemical_formula_structural   SrH10C3(I3N2)2
_chemical_formula_sum   'Sr2 H20 C6 I12 N8'
_cell_volume   877.63269588
_cell_formula_units_Z   2
loop_
 _symmetry_equiv_pos_site_id
 _symmetry_equiv_pos_as_xyz
  1  'x, y, z'
loop_
 _atom_site_type_symbol
 _atom_site_label
 _atom_site_symmetry_multiplicity
 _atom_site_fract_x
 _atom_site_fract_y
 _atom_site_fract_z
 _atom_site_occupancy
  C  C0  1  0.48478662  0.26299551  0.50852448  1
  C  C1  1  0.98465036  0.23708650  0.99143551  1
  C  C2  1  0.50333474  0.79343792  0.49196338  1
  C  C3  1  0.00330774  0.70654018  0.00806316  1
  N  N4  1  0.60770060  0.22019259  0.57700479  1
  N  N5  1  0.43440149  0.23267044  0.37184779  1
  N  N6  1  0.10763898  0.27982073  0.92301661  1
  N  N7  1  0.93434214  0.26732486  0.12817255  1
  N  N8  1  0.57737746  0.74938995  0.60999843  1
  N  N9  1  0.39098816  0.74222704  0.41620918  1
  N  N10  1  0.07740943  0.75057852  0.89004225  1
  N  N11  1  0.89098616  0.75777408  0.08379970  1
  H  H12  1  0.41963900  0.32929462  0.56901553  1
  H  H13  1  0.63046649  0.24190841  0.68898522  1
  H  H14  1  0.67341201  0.15778720  0.52702544  1
  H  H15  1  0.34340147  0.27645735  0.32423424  1
  H  H16  1  0.49234948  0.17495701  0.30501925  1
  H  H17  1  0.91936284  0.17091396  0.93083465  1
  H  H18  1  0.13033532  0.25819534  0.81098480  1
  H  H19  1  0.17347304  0.34211308  0.97309810  1
  H  H20  1  0.84325770  0.22358960  0.17571720  1
  H  H21  1  0.99239602  0.32491716  0.19510241  1
  H  H22  1  0.54016891  0.87761374  0.45156592  1
  H  H23  1  0.65636643  0.79893283  0.66807997  1
  H  H24  1  0.54487387  0.67205854  0.65504097  1
  H  H25  1  0.34931089  0.77811626  0.31743124  1
  H  H26  1  0.35239006  0.66230023  0.44472591  1
  H  H27  1  0.04009209  0.62234529  0.04843919  1
  H  H28  1  0.15637470  0.70102332  0.83196649  1
  H  H29  1  0.04493966  0.82792271  0.84500586  1
  H  H30  1  0.84923900  0.72187791  0.18254772  1
  H  H31  1  0.85242440  0.83771467  0.05528545  1
  C  C32  1  0.41126642  0.97313888  0.98752702  1
  C  C33  1  0.91128104  0.52687452  0.51244972  1
  Sr  Sr34  1  0.01607282  0.99579156  0.50047626  1
  Sr  Sr35  1  0.51605855  0.50420415  0.99951401  1
  I  I36  1  0.53531392  0.24260067  0.97555892  1
  I  I37  1  0.19871452  0.99535365  0.14462946  1
  I  I38  1  0.72795749  0.01418460  0.27636935  1
  I  I39  1  0.03534146  0.25739134  0.52445210  1
  I  I40  1  0.32246888  0.99633586  0.74010247  1
  I  I41  1  0.80396885  0.97334014  0.79096228  1
  I  I42  1  0.48362919  0.78488547  0.01822872  1
  I  I43  1  0.69875205  0.50467587  0.35531041  1
  I  I44  1  0.22797695  0.48578895  0.22365313  1
  I  I45  1  0.98363952  0.71511769  0.48178633  1
  I  I46  1  0.30394370  0.52664097  0.70903884  1
  I  I47  1  0.82243670  0.50366110  0.75986234  1
