# generated using pymatgen
data_GeH10C3(I3N2)2
_symmetry_space_group_name_H-M   'P 1'
_cell_length_a   8.68267882
_cell_length_b   11.65296126
_cell_length_c   8.36170373
_cell_angle_alpha   88.90705611
_cell_angle_beta   89.99666041
_cell_angle_gamma   90.00102252
_symmetry_Int_Tables_number   1
_chemical_formula_structural   GeH10C3(I3N2)2
_chemical_formula_sum   'Ge2 H20 C6 I12 N8'
_cell_volume   845.87423147
_cell_formula_units_Z   2
loop_
 _symmetry_equiv_pos_site_id
 _symmetry_equiv_pos_as_xyz
  1  'x, y, z'
loop_
 _atom_site_type_symbol
 _atom_site_label
 _atom_site_symmetry_multiplicity
 _atom_site_fract_x
 _atom_site_fract_y
 _atom_site_fract_z
 _atom_site_occupancy
  C  C0  1  0.50022489  0.28711510  0.49393247  1
  C  C1  1  1.00026420  0.21287739  0.00608545  1
  C  C2  1  0.50121547  0.79123273  0.50027884  1
  C  C3  1  0.00116261  0.70876448  0.99973677  1
  N  N4  1  0.60388793  0.23830172  0.58660945  1
  N  N5  1  0.40536556  0.23355543  0.39906065  1
  N  N6  1  0.10395784  0.26168751  0.91342054  1
  N  N7  1  0.90539403  0.26644662  0.10094940  1
  N  N8  1  0.59797963  0.74173770  0.60007046  1
  N  N9  1  0.39981038  0.73799564  0.41231841  1
  N  N10  1  0.09794582  0.75825336  0.89992022  1
  N  N11  1  0.89972351  0.76199729  0.08765679  1
  H  H12  1  0.49132042  0.38045112  0.49637385  1
  H  H13  1  0.67127204  0.28864403  0.65673507  1
  H  H14  1  0.61851566  0.15149588  0.59750235  1
  H  H15  1  0.32965932  0.28140603  0.33179777  1
  H  H16  1  0.40629326  0.14699987  0.38281076  1
  H  H17  1  0.99134970  0.11954577  0.00363737  1
  H  H18  1  0.17135622  0.21134030  0.84330652  1
  H  H19  1  0.11860434  0.34849480  0.90253502  1
  H  H20  1  0.82966751  0.21859824  0.16819939  1
  H  H21  1  0.90633157  0.35299631  0.11720098  1
  H  H22  1  0.50626103  0.88453445  0.48892577  1
  H  H23  1  0.67047565  0.79222318  0.66497803  1
  H  H24  1  0.60060407  0.65513491  0.62224350  1
  H  H25  1  0.33241893  0.78571835  0.33590135  1
  H  H26  1  0.38718648  0.65084827  0.41101220  1
  H  H27  1  0.00623178  0.61546467  0.01114798  1
  H  H28  1  0.17045754  0.70776179  0.83505631  1
  H  H29  1  0.10054580  0.84484351  0.87770704  1
  H  H30  1  0.83232512  0.71429073  0.16408669  1
  H  H31  1  0.88706842  0.84916007  0.08890009  1
  C  C32  1  0.42900532  0.96727940  0.99757918  1
  C  C33  1  0.92901985  0.53272803  0.50241124  1
  Ge  Ge34  1  0.97037629  0.00995519  0.49868160  1
  Ge  Ge35  1  0.47040327  0.49009636  0.00129491  1
  I  I36  1  0.51411970  0.26155990  0.99499718  1
  I  I37  1  0.24074818  0.98063106  0.19296128  1
  I  I38  1  0.72985087  0.01391750  0.28053009  1
  I  I39  1  0.01407157  0.23848760  0.50502496  1
  I  I40  1  0.30412473  0.00374383  0.75756724  1
  I  I41  1  0.79395563  0.98790880  0.77241245  1
  I  I42  1  0.49533888  0.78093049  0.00196527  1
  I  I43  1  0.74074908  0.51935923  0.30706331  1
  I  I44  1  0.22987786  0.48611090  0.21947701  1
  I  I45  1  0.99537225  0.71907378  0.49801049  1
  I  I46  1  0.29397822  0.51210588  0.72758825  1
  I  I47  1  0.80415094  0.49625777  0.74244280  1
