# generated using pymatgen
data_ZnH10C3(I3N2)2
_symmetry_space_group_name_H-M   'P 1'
_cell_length_a   8.74728346
_cell_length_b   11.49817064
_cell_length_c   8.45303434
_cell_angle_alpha   89.44344457
_cell_angle_beta   90.00034885
_cell_angle_gamma   90.00104433
_symmetry_Int_Tables_number   1
_chemical_formula_structural   ZnH10C3(I3N2)2
_chemical_formula_sum   'Zn2 H20 C6 I12 N8'
_cell_volume   850.14713171
_cell_formula_units_Z   2
loop_
 _symmetry_equiv_pos_site_id
 _symmetry_equiv_pos_as_xyz
  1  'x, y, z'
loop_
 _atom_site_type_symbol
 _atom_site_label
 _atom_site_symmetry_multiplicity
 _atom_site_fract_x
 _atom_site_fract_y
 _atom_site_fract_z
 _atom_site_occupancy
  C  C0  1  0.50854899  0.28809074  0.49002752  1
  C  C1  1  0.00855445  0.21189242  0.00996895  1
  C  C2  1  0.50386305  0.79394613  0.50341962  1
  C  C3  1  0.00385736  0.70603058  0.99657075  1
  N  N4  1  0.60144773  0.23688651  0.59121600  1
  N  N5  1  0.41640979  0.23503395  0.39252666  1
  N  N6  1  0.10150559  0.26311564  0.90886936  1
  N  N7  1  0.91642331  0.26491958  0.10749290  1
  N  N8  1  0.59850943  0.74195390  0.60114141  1
  N  N9  1  0.40439930  0.74207170  0.41200238  1
  N  N10  1  0.09853870  0.75803076  0.89884612  1
  N  N11  1  0.90434804  0.75791167  0.08793418  1
  H  H12  1  0.50844404  0.38295557  0.48664326  1
  H  H13  1  0.66541053  0.28780013  0.66463760  1
  H  H14  1  0.59586886  0.15012316  0.61771667  1
  H  H15  1  0.34692463  0.28454388  0.32148111  1
  H  H16  1  0.41008231  0.14684226  0.38047508  1
  H  H17  1  0.00838200  0.11703359  0.01324961  1
  H  H18  1  0.16548168  0.21223152  0.83541642  1
  H  H19  1  0.09600149  0.34991287  0.88245723  1
  H  H20  1  0.84688766  0.21539683  0.17846924  1
  H  H21  1  0.91015039  0.35311789  0.11964405  1
  H  H22  1  0.50853764  0.88864904  0.49728275  1
  H  H23  1  0.66978895  0.79185185  0.66858165  1
  H  H24  1  0.60083715  0.65393100  0.61960282  1
  H  H25  1  0.33838453  0.79194524  0.33781161  1
  H  H26  1  0.39391885  0.65385992  0.40378812  1
  H  H27  1  0.00856103  0.61131748  0.00274478  1
  H  H28  1  0.16982172  0.70811718  0.83145862  1
  H  H29  1  0.10083797  0.84602194  0.88037466  1
  H  H30  1  0.83833580  0.70802599  0.16212678  1
  H  H31  1  0.89384006  0.84610413  0.09610078  1
  C  C32  1  0.43337306  0.96350428  0.00102727  1
  C  C33  1  0.93340943  0.53654006  0.49897956  1
  Zn  Zn34  1  0.88194394  0.05769261  0.51611192  1
  Zn  Zn35  1  0.38199020  0.44244021  0.98390008  1
  I  I36  1  0.54438683  0.26403434  0.99837226  1
  I  I37  1  0.24437681  0.98278627  0.19181125  1
  I  I38  1  0.72719432  0.00829882  0.27120957  1
  I  I39  1  0.04438264  0.23607226  0.50167441  1
  I  I40  1  0.30849567  0.00474710  0.76423343  1
  I  I41  1  0.79588280  0.98336988  0.78600385  1
  I  I42  1  0.49283086  0.77317681  0.00219075  1
  I  I43  1  0.74442228  0.51720334  0.30818637  1
  I  I44  1  0.22718559  0.49172251  0.22880358  1
  I  I45  1  0.99280748  0.72687502  0.49779181  1
  I  I46  1  0.29590477  0.51665483  0.71396483  1
  I  I47  1  0.80852964  0.49527958  0.73576513  1
