# generated using pymatgen
data_CaH10C3(I3N2)2
_symmetry_space_group_name_H-M   'P 1'
_cell_length_a   8.61196012
_cell_length_b   11.58587462
_cell_length_c   8.59946554
_cell_angle_alpha   89.60346786
_cell_angle_beta   89.99020683
_cell_angle_gamma   90.00138591
_symmetry_Int_Tables_number   1
_chemical_formula_structural   CaH10C3(I3N2)2
_chemical_formula_sum   'Ca2 H20 C6 I12 N8'
_cell_volume   858.00908640
_cell_formula_units_Z   2
loop_
 _symmetry_equiv_pos_site_id
 _symmetry_equiv_pos_as_xyz
  1  'x, y, z'
loop_
 _atom_site_type_symbol
 _atom_site_label
 _atom_site_symmetry_multiplicity
 _atom_site_fract_x
 _atom_site_fract_y
 _atom_site_fract_z
 _atom_site_occupancy
  C  C0  1  0.49181942  0.26754931  0.50631345  1
  C  C1  1  0.99176991  0.23249132  0.99361936  1
  C  C2  1  0.49890324  0.79679678  0.49458140  1
  C  C3  1  0.99878258  0.70320515  0.00551276  1
  N  N4  1  0.61030583  0.22127808  0.57954353  1
  N  N5  1  0.43797156  0.23259733  0.37179604  1
  N  N6  1  0.11031616  0.27875100  0.92041432  1
  N  N7  1  0.93795892  0.26737614  0.12819922  1
  N  N8  1  0.57979743  0.74834188  0.60655194  1
  N  N9  1  0.39027156  0.74469490  0.41408044  1
  N  N10  1  0.07974709  0.75165514  0.89353700  1
  N  N11  1  0.89013582  0.75532379  0.08599033  1
  H  H12  1  0.43349742  0.34079212  0.56116269  1
  H  H13  1  0.63568072  0.24746441  0.69031991  1
  H  H14  1  0.66949724  0.15229046  0.53544977  1
  H  H15  1  0.35054011  0.27856016  0.31999693  1
  H  H16  1  0.48946634  0.16769717  0.31036006  1
  H  H17  1  0.93338198  0.15931479  0.93867716  1
  H  H18  1  0.13567702  0.25261862  0.80960224  1
  H  H19  1  0.16958128  0.34766246  0.96458558  1
  H  H20  1  0.85049339  0.22142282  0.17996253  1
  H  H21  1  0.98951511  0.33219530  0.18971043  1
  H  H22  1  0.52693697  0.88603542  0.46361877  1
  H  H23  1  0.65661348  0.79824441  0.66819388  1
  H  H24  1  0.55587078  0.66629396  0.64468965  1
  H  H25  1  0.33840929  0.78744033  0.32404900  1
  H  H26  1  0.35841637  0.66060817  0.43358368  1
  H  H27  1  0.02678264  0.61396363  0.03646502  1
  H  H28  1  0.15658278  0.70174438  0.83191052  1
  H  H29  1  0.05585716  0.83370351  0.85539741  1
  H  H30  1  0.83819467  0.71257464  0.17598627  1
  H  H31  1  0.85831249  0.83941156  0.06649726  1
  C  C32  1  0.40838005  0.96776282  0.98731998  1
  C  C33  1  0.90840110  0.53224313  0.51259935  1
  Ca  Ca34  1  0.99290614  0.99408188  0.51171048  1
  Ca  Ca35  1  0.49293269  0.50588305  0.98820644  1
  I  I36  1  0.54189110  0.25423082  0.98013406  1
  I  I37  1  0.20977165  0.99170441  0.16270039  1
  I  I38  1  0.73277017  0.01194842  0.27772736  1
  I  I39  1  0.04185210  0.24573467  0.51981227  1
  I  I40  1  0.30619694  0.99841734  0.74409958  1
  I  I41  1  0.79478260  0.97571835  0.79304212  1
  I  I42  1  0.48966739  0.77903110  0.01446099  1
  I  I43  1  0.70976498  0.50838848  0.33730275  1
  I  I44  1  0.23278729  0.48803546  0.22226554  1
  I  I45  1  0.98979036  0.72094977  0.48554706  1
  I  I46  1  0.29480746  0.52426653  0.70695133  1
  I  I47  1  0.80623055  0.50156756  0.75586653  1
