# generated using pymatgen
data_SiH10C3(I3N2)2
_symmetry_space_group_name_H-M   'P 1'
_cell_length_a   8.64961292
_cell_length_b   11.61628634
_cell_length_c   8.31314580
_cell_angle_alpha   88.97471184
_cell_angle_beta   90.00000952
_cell_angle_gamma   90.00187043
_symmetry_Int_Tables_number   1
_chemical_formula_structural   SiH10C3(I3N2)2
_chemical_formula_sum   'Si2 H20 C6 I12 N8'
_cell_volume   835.14106748
_cell_formula_units_Z   2
loop_
 _symmetry_equiv_pos_site_id
 _symmetry_equiv_pos_as_xyz
  1  'x, y, z'
loop_
 _atom_site_type_symbol
 _atom_site_label
 _atom_site_symmetry_multiplicity
 _atom_site_fract_x
 _atom_site_fract_y
 _atom_site_fract_z
 _atom_site_occupancy
  C  C0  1  0.49797510  0.28887024  0.49393410  1
  C  C1  1  0.99800854  0.21110224  0.00610056  1
  C  C2  1  0.50245327  0.79056148  0.50227419  1
  C  C3  1  0.00236980  0.70941607  0.99773356  1
  N  N4  1  0.60034098  0.23965684  0.58883025  1
  N  N5  1  0.40102565  0.23510281  0.40036256  1
  N  N6  1  0.10040400  0.26030032  0.91123587  1
  N  N7  1  0.90103249  0.26488720  0.09963510  1
  N  N8  1  0.60050446  0.73955252  0.60013550  1
  N  N9  1  0.40150513  0.73823870  0.41154926  1
  N  N10  1  0.10043998  0.76042205  0.89990015  1
  N  N11  1  0.90135717  0.76173783  0.08839464  1
  H  H12  1  0.49241292  0.38272477  0.49297793  1
  H  H13  1  0.66970152  0.29035988  0.65752281  1
  H  H14  1  0.61157347  0.15249651  0.60316314  1
  H  H15  1  0.32682927  0.28334646  0.33097663  1
  H  H16  1  0.39841201  0.14791910  0.38691739  1
  H  H17  1  0.99242833  0.11724785  0.00707800  1
  H  H18  1  0.16978434  0.20958593  0.84257892  1
  H  H19  1  0.11166460  0.34745823  0.89689431  1
  H  H20  1  0.82681480  0.21665342  0.16901142  1
  H  H21  1  0.89843885  0.35207181  0.11305325  1
  H  H22  1  0.50529631  0.88439674  0.49574534  1
  H  H23  1  0.67278334  0.78912463  0.66742035  1
  H  H24  1  0.60512923  0.65229273  0.61844055  1
  H  H25  1  0.33313601  0.78718168  0.33667488  1
  H  H26  1  0.39164599  0.65082487  0.40471189  1
  H  H27  1  0.00523937  0.61558243  0.00430969  1
  H  H28  1  0.17275367  0.71084774  0.83265598  1
  H  H29  1  0.10504917  0.84767849  0.88155123  1
  H  H30  1  0.83298334  0.71279398  0.16326425  1
  H  H31  1  0.89147420  0.84915147  0.09518455  1
  C  C32  1  0.43371712  0.96804306  0.99981614  1
  C  C33  1  0.93377948  0.53202708  0.50017197  1
  Si  Si34  1  0.96769509  0.01273549  0.49733180  1
  Si  Si35  1  0.46767386  0.48738019  0.00263826  1
  I  I36  1  0.50979506  0.26614180  0.99694158  1
  I  I37  1  0.24545725  0.98110396  0.19795695  1
  I  I38  1  0.73645251  0.01210750  0.28283801  1
  I  I39  1  0.00975615  0.23397386  0.50308237  1
  I  I40  1  0.30407408  0.00447442  0.75981295  1
  I  I41  1  0.79537048  0.98994286  0.76291279  1
  I  I42  1  0.49689852  0.78009904  0.00175086  1
  I  I43  1  0.74548895  0.51889669  0.30206715  1
  I  I44  1  0.23644702  0.48792193  0.21714594  1
  I  I45  1  0.99695033  0.71997449  0.49819802  1
  I  I46  1  0.29535470  0.51009120  0.73704880  1
  I  I47  1  0.80414142  0.49556235  0.74017292  1
