# generated using pymatgen
data_MgH10C3(I3N2)2
_symmetry_space_group_name_H-M   'P 1'
_cell_length_a   9.05405861
_cell_length_b   10.90758479
_cell_length_c   8.68353739
_cell_angle_alpha   90.62917177
_cell_angle_beta   89.98910272
_cell_angle_gamma   89.99437618
_symmetry_Int_Tables_number   1
_chemical_formula_structural   MgH10C3(I3N2)2
_chemical_formula_sum   'Mg2 H20 C6 I12 N8'
_cell_volume   857.51629691
_cell_formula_units_Z   2
loop_
 _symmetry_equiv_pos_site_id
 _symmetry_equiv_pos_as_xyz
  1  'x, y, z'
loop_
 _atom_site_type_symbol
 _atom_site_label
 _atom_site_symmetry_multiplicity
 _atom_site_fract_x
 _atom_site_fract_y
 _atom_site_fract_z
 _atom_site_occupancy
  C  C0  1  0.51162440  0.28925133  0.49246452  1
  C  C1  1  0.01160295  0.21075041  0.00751818  1
  C  C2  1  0.49724275  0.79690372  0.50105442  1
  C  C3  1  0.99720490  0.70310041  0.99891603  1
  N  N4  1  0.59982756  0.23311916  0.58884052  1
  N  N5  1  0.43200239  0.23669724  0.38462028  1
  N  N6  1  0.09993683  0.26689659  0.91120026  1
  N  N7  1  0.93202460  0.26329485  0.11542847  1
  N  N8  1  0.58122206  0.74592788  0.60541969  1
  N  N9  1  0.40173708  0.73936231  0.41302676  1
  N  N10  1  0.08118282  0.75407392  0.89455157  1
  N  N11  1  0.90169982  0.76064706  0.08699896  1
  H  H12  1  0.50346654  0.38863822  0.50383083  1
  H  H13  1  0.65253509  0.28299514  0.67266150  1
  H  H14  1  0.61090835  0.14012595  0.59361075  1
  H  H15  1  0.36463654  0.28997356  0.31800160  1
  H  H16  1  0.43347262  0.14462083  0.36223972  1
  H  H17  1  0.00331042  0.11139914  0.99597716  1
  H  H18  1  0.15259814  0.21704091  0.82732107  1
  H  H19  1  0.11114388  0.35987570  0.90661331  1
  H  H20  1  0.86457472  0.21003778  0.18197262  1
  H  H21  1  0.93362865  0.35535562  0.13795097  1
  H  H22  1  0.51025506  0.89520914  0.48379369  1
  H  H23  1  0.64762541  0.80075836  0.67312066  1
  H  H24  1  0.57478995  0.65511037  0.63218971  1
  H  H25  1  0.34291451  0.78875558  0.33436718  1
  H  H26  1  0.37903484  0.64783513  0.42045513  1
  H  H27  1  0.01019443  0.60478875  0.01613162  1
  H  H28  1  0.14761043  0.69925085  0.82681765  1
  H  H29  1  0.07476541  0.84490652  0.86780442  1
  H  H30  1  0.84285232  0.71124183  0.16565901  1
  H  H31  1  0.87901184  0.85218622  0.07963968  1
  C  C32  1  0.42497821  0.95413137  0.99638428  1
  C  C33  1  0.92497767  0.54585741  0.50356914  1
  Mg  Mg34  1  0.89890531  0.99067960  0.51495295  1
  Mg  Mg35  1  0.39897935  0.50931534  0.98502187  1
  I  I36  1  0.57226595  0.31242777  0.99804591  1
  I  I37  1  0.24890549  0.97607229  0.17752112  1
  I  I38  1  0.71257229  0.01416557  0.27295454  1
  I  I39  1  0.07221244  0.18753584  0.50197687  1
  I  I40  1  0.30954559  0.99281162  0.77344211  1
  I  I41  1  0.77446957  0.98964711  0.79797830  1
  I  I42  1  0.51500456  0.74824218  0.00899518  1
  I  I43  1  0.74891718  0.52395785  0.32247713  1
  I  I44  1  0.21257590  0.48585379  0.22703871  1
  I  I45  1  0.01498332  0.75173551  0.49098009  1
  I  I46  1  0.27455222  0.51033765  0.70203274  1
  I  I47  1  0.80953696  0.50716159  0.72653586  1
