# generated using pymatgen
data_ZnH6CI3N
_symmetry_space_group_name_H-M   'P 1'
_cell_length_a   7.33610184
_cell_length_b   13.30010212
_cell_length_c   8.53918423
_cell_angle_alpha   90.00269881
_cell_angle_beta   89.98569487
_cell_angle_gamma   89.99962489
_symmetry_Int_Tables_number   1
_chemical_formula_structural   ZnH6CI3N
_chemical_formula_sum   'Zn4 H24 C4 I12 N4'
_cell_volume   833.17589423
_cell_formula_units_Z   4
loop_
 _symmetry_equiv_pos_site_id
 _symmetry_equiv_pos_as_xyz
  1  'x, y, z'
loop_
 _atom_site_type_symbol
 _atom_site_label
 _atom_site_symmetry_multiplicity
 _atom_site_fract_x
 _atom_site_fract_y
 _atom_site_fract_z
 _atom_site_occupancy
  C  C0  1  0.37027693  0.24601219  0.35005365  1
  C  C1  1  0.86980178  0.24620467  0.14962985  1
  C  C2  1  0.62966594  0.74592345  0.65005960  1
  C  C3  1  0.13027438  0.74621118  0.85038976  1
  N  N4  1  0.51903843  0.26690926  0.46290683  1
  N  N5  1  0.01872263  0.26687447  0.03677185  1
  N  N6  1  0.48103863  0.76695867  0.53714069  1
  N  N7  1  0.98129252  0.76684794  0.96320900  1
  H  H8  1  0.42697243  0.24343291  0.23119660  1
  H  H9  1  0.30790815  0.17375212  0.38033861  1
  H  H10  1  0.26980388  0.30663672  0.35873407  1
  H  H11  1  0.62018795  0.21246747  0.45906813  1
  H  H12  1  0.58169922  0.33658041  0.44081912  1
  H  H13  1  0.47314503  0.26749155  0.57908497  1
  H  H14  1  0.92638753  0.24370734  0.26849672  1
  H  H15  1  0.80726375  0.17396510  0.11949940  1
  H  H16  1  0.76949480  0.30690569  0.14077623  1
  H  H17  1  0.11969327  0.21232305  0.04071744  1
  H  H18  1  0.08158823  0.33648822  0.05880778  1
  H  H19  1  0.97294973  0.26743964  0.92058158  1
  H  H20  1  0.57291446  0.74336275  0.76888474  1
  H  H21  1  0.69187618  0.67361850  0.61974894  1
  H  H22  1  0.73030500  0.80647030  0.64144967  1
  H  H23  1  0.41848233  0.83666133  0.55927648  1
  H  H24  1  0.37974879  0.71258005  0.54088913  1
  H  H25  1  0.52698948  0.76754652  0.42100673  1
  H  H26  1  0.07373425  0.74370436  0.73150664  1
  H  H27  1  0.23053019  0.80693721  0.85928526  1
  H  H28  1  0.19285446  0.67398820  0.88052611  1
  H  H29  1  0.91838232  0.83644422  0.94116574  1
  H  H30  1  0.88036263  0.71226781  0.95921565  1
  H  H31  1  0.02701333  0.76741714  0.07941084  1
  Zn  Zn32  1  0.56925103  0.94107685  0.11759258  1
  Zn  Zn33  1  0.93069464  0.44114220  0.61757923  1
  Zn  Zn34  1  0.06928614  0.94114960  0.38234745  1
  Zn  Zn35  1  0.43066040  0.44108147  0.88236868  1
  I  I36  1  0.46313517  0.24782062  0.87245425  1
  I  I37  1  0.22281856  0.01111787  0.11786113  1
  I  I38  1  0.72289780  0.01124525  0.38185701  1
  I  I39  1  0.96330806  0.24788338  0.62715658  1
  I  I40  1  0.24927837  0.99643541  0.62566298  1
  I  I41  1  0.74929923  0.99622741  0.87414920  1
  I  I42  1  0.53689891  0.74781488  0.12757624  1
  I  I43  1  0.75066506  0.49641552  0.37428405  1
  I  I44  1  0.25059475  0.49629511  0.12576653  1
  I  I45  1  0.03667253  0.74788767  0.37286342  1
  I  I46  1  0.27707231  0.51123202  0.61807412  1
  I  I47  1  0.77709212  0.51112253  0.88205534  1
