# generated using pymatgen
data_MgH12PtC2(I3N)2
_symmetry_space_group_name_H-M   'P 1'
_cell_length_a   8.05575419
_cell_length_b   12.75939451
_cell_length_c   7.97070143
_cell_angle_alpha   86.31367627
_cell_angle_beta   90.00605281
_cell_angle_gamma   90.03703622
_symmetry_Int_Tables_number   1
_chemical_formula_structural   MgH12PtC2(I3N)2
_chemical_formula_sum   'Mg2 H24 Pt2 C4 I12 N4'
_cell_volume   817.58559793
_cell_formula_units_Z   2
loop_
 _symmetry_equiv_pos_site_id
 _symmetry_equiv_pos_as_xyz
  1  'x, y, z'
loop_
 _atom_site_type_symbol
 _atom_site_label
 _atom_site_symmetry_multiplicity
 _atom_site_fract_x
 _atom_site_fract_y
 _atom_site_fract_z
 _atom_site_occupancy
  C  C0  1  0.40806459  0.25418546  0.41612337  1
  C  C1  1  0.90895840  0.24589296  0.08428691  1
  C  C2  1  0.59193047  0.74581828  0.58388391  1
  C  C3  1  0.09104199  0.75411207  0.91572390  1
  N  N4  1  0.55642456  0.24672100  0.52566972  1
  N  N5  1  0.05694499  0.25322602  0.97414323  1
  N  N6  1  0.44356919  0.75328522  0.47433882  1
  N  N7  1  0.94305710  0.74677135  0.02586975  1
  H  H8  1  0.44883999  0.25817381  0.28500416  1
  H  H9  1  0.33041039  0.18472002  0.44312968  1
  H  H10  1  0.34004588  0.32549659  0.44153632  1
  H  H11  1  0.62620639  0.18066280  0.50128805  1
  H  H12  1  0.63237674  0.31181158  0.50395726  1
  H  H13  1  0.52559887  0.24086447  0.65352287  1
  H  H14  1  0.95028634  0.24196846  0.21524504  1
  H  H15  1  0.84057337  0.17462487  0.05927046  1
  H  H16  1  0.83150938  0.31541160  0.05749722  1
  H  H17  1  0.13273960  0.18810456  0.99569857  1
  H  H18  1  0.12699346  0.31926390  0.99818903  1
  H  H19  1  0.02561311  0.25901808  0.84643533  1
  H  H20  1  0.55115462  0.74183050  0.71500577  1
  H  H21  1  0.65994703  0.67450763  0.55847093  1
  H  H22  1  0.66958446  0.81528337  0.55688016  1
  H  H23  1  0.37378829  0.81934425  0.49872067  1
  H  H24  1  0.36761632  0.68819547  0.49604881  1
  H  H25  1  0.47439659  0.75914145  0.34648610  1
  H  H26  1  0.04971371  0.75803786  0.78476640  1
  H  H27  1  0.15942233  0.82538166  0.94074380  1
  H  H28  1  0.16849744  0.68459582  0.94251024  1
  H  H29  1  0.86725679  0.81189030  0.00431945  1
  H  H30  1  0.87301342  0.68073131  0.00182279  1
  H  H31  1  0.97439080  0.74097810  0.15357685  1
  Mg  Mg32  1  0.50005829  0.00000342  0.99999490  1
  Mg  Mg33  1  0.00012197  0.50000006  0.50008047  1
  Pt  Pt34  1  0.99999190  0.00000193  0.50000082  1
  Pt  Pt35  1  0.49998042  0.50000054  0.00001053  1
  I  I36  1  0.48158496  0.20959891  0.95417431  1
  I  I37  1  0.15553658  0.99961024  0.20610756  1
  I  I38  1  0.70911007  0.01670613  0.34410296  1
  I  I39  1  0.98092575  0.29044409  0.54606446  1
  I  I40  1  0.29087113  0.98329814  0.65590296  1
  I  I41  1  0.84445951  0.00039129  0.79391369  1
  I  I42  1  0.51840716  0.79040497  0.04583408  1
  I  I43  1  0.65557364  0.50028237  0.29389027  1
  I  I44  1  0.20909157  0.48334847  0.15588760  1
  I  I45  1  0.01904975  0.70955912  0.45394823  1
  I  I46  1  0.34441652  0.49972021  0.70608593  1
  I  I47  1  0.79087790  0.51665753  0.84413222  1
