# generated using pymatgen
data_H10C3I6N5
_symmetry_space_group_name_H-M   'P 1'
_cell_length_a   8.88246880
_cell_length_b   9.98529042
_cell_length_c   8.90609567
_cell_angle_alpha   94.41381291
_cell_angle_beta   87.53145583
_cell_angle_gamma   90.00699860
_symmetry_Int_Tables_number   1
_chemical_formula_structural   H10C3I6N5
_chemical_formula_sum   'H20 C6 I12 N10'
_cell_volume   786.83990982
_cell_formula_units_Z   2
loop_
 _symmetry_equiv_pos_site_id
 _symmetry_equiv_pos_as_xyz
  1  'x, y, z'
loop_
 _atom_site_type_symbol
 _atom_site_label
 _atom_site_symmetry_multiplicity
 _atom_site_fract_x
 _atom_site_fract_y
 _atom_site_fract_z
 _atom_site_occupancy
  C  C0  1  0.53546255  0.24069570  0.47162419  1
  C  C1  1  0.04195184  0.25908156  0.03093584  1
  C  C2  1  0.48240026  0.78453617  0.50497611  1
  C  C3  1  0.98718001  0.71109243  0.99492939  1
  N  N4  1  0.53410501  0.14794040  0.56902862  1
  N  N5  1  0.42912741  0.25747978  0.37814218  1
  N  N6  1  0.02923013  0.34836602  0.93089933  1
  N  N7  1  0.94097488  0.23790473  0.13749815  1
  N  N8  1  0.60717172  0.72932162  0.54564032  1
  N  N9  1  0.43130087  0.76988992  0.36912294  1
  N  N10  1  0.10916924  0.76800320  0.94067367  1
  N  N11  1  0.93186113  0.73462985  0.13293974  1
  H  H12  1  0.63251641  0.30800371  0.46675693  1
  H  H13  1  0.61719953  0.14526207  0.64443810  1
  H  H14  1  0.43893461  0.09281727  0.58772053  1
  H  H15  1  0.44256777  0.33279940  0.30680304  1
  H  H16  1  0.33782163  0.19428608  0.36599695  1
  H  H17  1  0.14367128  0.19691126  0.02537503  1
  H  H18  1  0.10936826  0.35373269  0.84554797  1
  H  H19  1  0.93028438  0.39946786  0.92221269  1
  H  H20  1  0.96828848  0.16925826  0.21208053  1
  H  H21  1  0.84879326  0.30047917  0.16198634  1
  H  H22  1  0.41740387  0.84777600  0.59035284  1
  H  H23  1  0.62928622  0.73593693  0.65787205  1
  H  H24  1  0.66367458  0.65784805  0.47466666  1
  H  H25  1  0.33880436  0.82445109  0.34202221  1
  H  H26  1  0.48485221  0.70787050  0.28631869  1
  H  H27  1  0.92720412  0.64004977  0.91927244  1
  H  H28  1  0.14380306  0.74584335  0.83079004  1
  H  H29  1  0.16680752  0.83894146  0.00506603  1
  H  H30  1  0.84235436  0.67808194  0.17008695  1
  H  H31  1  0.98352088  0.80134723  0.20795989  1
  C  C32  1  0.61935537  0.01343454  0.99895888  1
  C  C33  1  0.11699803  0.50809524  0.49893438  1
  N  N34  1  0.96454410  0.04984692  0.64477033  1
  N  N35  1  0.48159085  0.52913276  0.87494387  1
  I  I36  1  0.47372101  0.18061812  0.97833649  1
  I  I37  1  0.17177211  0.99722366  0.26571338  1
  I  I38  1  0.69076226  0.00134924  0.22374892  1
  I  I39  1  0.98606409  0.32156869  0.53634314  1
  I  I40  1  0.17968792  0.04490270  0.72638841  1
  I  I41  1  0.79900835  0.98601050  0.80259294  1
  I  I42  1  0.51874621  0.74127975  0.93357776  1
  I  I43  1  0.67985247  0.49347330  0.23482033  1
  I  I44  1  0.20173259  0.50330204  0.26225391  1
  I  I45  1  0.99476193  0.69951708  0.54343008  1
  I  I46  1  0.30622963  0.51438456  0.67683504  1
  I  I47  1  0.68810058  0.45581843  0.76872051  1
