# generated using pymatgen
data_BiH10C2I6N5
_symmetry_space_group_name_H-M   'P 1'
_cell_length_a   8.60827721
_cell_length_b   10.77359627
_cell_length_c   9.31937186
_cell_angle_alpha   97.92668553
_cell_angle_beta   89.99653599
_cell_angle_gamma   90.00060617
_symmetry_Int_Tables_number   1
_chemical_formula_structural   BiH10C2I6N5
_chemical_formula_sum   'Bi2 H20 C4 I12 N10'
_cell_volume   856.04007069
_cell_formula_units_Z   2
loop_
 _symmetry_equiv_pos_site_id
 _symmetry_equiv_pos_as_xyz
  1  'x, y, z'
loop_
 _atom_site_type_symbol
 _atom_site_label
 _atom_site_symmetry_multiplicity
 _atom_site_fract_x
 _atom_site_fract_y
 _atom_site_fract_z
 _atom_site_occupancy
  C  C0  1  0.52145115  0.28834030  0.49967357  1
  C  C1  1  0.02251525  0.21188730  0.00041253  1
  C  C2  1  0.52182252  0.78861244  0.50572862  1
  C  C3  1  0.02157121  0.71144246  0.99429372  1
  N  N4  1  0.54724207  0.22088950  0.60439049  1
  N  N5  1  0.40898354  0.26959097  0.40431186  1
  N  N6  1  0.04733013  0.27918783  0.89545470  1
  N  N7  1  0.90972108  0.22991160  0.09567798  1
  N  N8  1  0.56869214  0.71813099  0.60231259  1
  N  N9  1  0.41380142  0.75843374  0.40856488  1
  N  N10  1  0.06818979  0.78197351  0.89763586  1
  N  N11  1  0.91360489  0.74153598  0.09153338  1
  H  H12  1  0.60251233  0.36467608  0.48887810  1
  H  H13  1  0.63577421  0.24624494  0.67516777  1
  H  H14  1  0.47236708  0.15206538  0.62807020  1
  H  H15  1  0.40312357  0.32357629  0.32262951  1
  H  H16  1  0.33019619  0.19781277  0.39996883  1
  H  H17  1  0.10452105  0.13631345  0.01162064  1
  H  H18  1  0.13620010  0.25442576  0.82481753  1
  H  H19  1  0.97175258  0.34747628  0.87155706  1
  H  H20  1  0.90482102  0.17623900  0.17768408  1
  H  H21  1  0.82995899  0.30090176  0.09957937  1
  H  H22  1  0.58258363  0.87784020  0.50749905  1
  H  H23  1  0.64770361  0.75530961  0.67811566  1
  H  H24  1  0.51479141  0.63620577  0.61734724  1
  H  H25  1  0.38346075  0.82450512  0.34440651  1
  H  H26  1  0.33279825  0.68188815  0.41451833  1
  H  H27  1  0.08250327  0.62229231  0.99247359  1
  H  H28  1  0.14725507  0.74492428  0.82182070  1
  H  H29  1  0.01412502  0.86384905  0.88266771  1
  H  H30  1  0.88343131  0.67546210  0.15577222  1
  H  H31  1  0.83258002  0.81807692  0.08566097  1
  N  N32  1  0.69578777  0.92116450  0.06778254  1
  N  N33  1  0.19587518  0.57885531  0.43228864  1
  Bi  Bi34  1  0.99835961  0.99484614  0.49412741  1
  Bi  Bi35  1  0.49854283  0.50519123  0.00598009  1
  I  I36  1  0.47690959  0.22982276  0.99796799  1
  I  I37  1  0.20125020  0.99014875  0.22810205  1
  I  I38  1  0.68334863  0.01430003  0.28040734  1
  I  I39  1  0.97684591  0.27015642  0.50189891  1
  I  I40  1  0.26402822  0.00590049  0.69995012  1
  I  I41  1  0.78586146  0.98878795  0.75758764  1
  I  I42  1  0.50544168  0.81020226  0.99705001  1
  I  I43  1  0.70143036  0.50952500  0.27182573  1
  I  I44  1  0.18352375  0.48586763  0.21957384  1
  I  I45  1  0.00542111  0.68973998  0.50291181  1
  I  I46  1  0.28598078  0.51153136  0.74251869  1
  I  I47  1  0.76402761  0.49400129  0.79988669  1
