# generated using pymatgen
data_H10AuC2I6N5
_symmetry_space_group_name_H-M   'P 1'
_cell_length_a   8.44568058
_cell_length_b   11.39711427
_cell_length_c   8.78118616
_cell_angle_alpha   90.06950014
_cell_angle_beta   90.02226673
_cell_angle_gamma   89.96252898
_symmetry_Int_Tables_number   1
_chemical_formula_structural   H10AuC2I6N5
_chemical_formula_sum   'H20 Au2 C4 I12 N10'
_cell_volume   845.24438382
_cell_formula_units_Z   2
loop_
 _symmetry_equiv_pos_site_id
 _symmetry_equiv_pos_as_xyz
  1  'x, y, z'
loop_
 _atom_site_type_symbol
 _atom_site_label
 _atom_site_symmetry_multiplicity
 _atom_site_fract_x
 _atom_site_fract_y
 _atom_site_fract_z
 _atom_site_occupancy
  C  C0  1  0.51293710  0.26991789  0.48715631  1
  C  C1  1  0.01316231  0.23017814  0.01268085  1
  C  C2  1  0.47889622  0.81890421  0.53161600  1
  C  C3  1  0.97953357  0.68101286  0.96812084  1
  N  N4  1  0.59725485  0.20870502  0.58448559  1
  N  N5  1  0.50169503  0.24742120  0.34113454  1
  N  N6  1  0.09757794  0.29134911  0.91554105  1
  N  N7  1  0.00174198  0.25265531  0.15869182  1
  N  N8  1  0.54770265  0.76255111  0.64369225  1
  N  N9  1  0.37260187  0.77398918  0.43944097  1
  N  N10  1  0.04832572  0.73770831  0.85641825  1
  N  N11  1  0.87366798  0.72580479  0.06086955  1
  H  H12  1  0.44756816  0.34566681  0.53121205  1
  H  H13  1  0.60332285  0.23401999  0.69604284  1
  H  H14  1  0.66527704  0.13801681  0.55254625  1
  H  H15  1  0.42999254  0.30012048  0.27681744  1
  H  H16  1  0.55797462  0.17762774  0.29064186  1
  H  H17  1  0.94787583  0.15449177  0.96845451  1
  H  H18  1  0.10377531  0.26609185  0.80397392  1
  H  H19  1  0.16554397  0.36197194  0.94763909  1
  H  H20  1  0.92997186  0.20000130  0.22286108  1
  H  H21  1  0.05791083  0.32242972  0.20927375  1
  H  H22  1  0.51411513  0.90987364  0.51208558  1
  H  H23  1  0.62626053  0.80737837  0.71116549  1
  H  H24  1  0.51761044  0.67809777  0.67138911  1
  H  H25  1  0.32787440  0.82517075  0.35389557  1
  H  H26  1  0.33644885  0.68846762  0.44525065  1
  H  H27  1  0.01441109  0.58983780  0.98675534  1
  H  H28  1  0.12656964  0.69294733  0.78853710  1
  H  H29  1  0.01844585  0.82235508  0.82936380  1
  H  H30  1  0.82891032  0.67429756  0.14598783  1
  H  H31  1  0.83788343  0.81148167  0.05594426  1
  N  N32  1  0.41490534  0.95952798  0.01631785  1
  N  N33  1  0.91449850  0.54035858  0.48378166  1
  Au  Au34  1  0.86667530  0.99565399  0.51969081  1
  Au  Au35  1  0.36677285  0.50425739  0.98043205  1
  I  I36  1  0.63829122  0.34572878  0.97576231  1
  I  I37  1  0.27356814  0.01946443  0.20656602  1
  I  I38  1  0.75550774  0.00308438  0.23792360  1
  I  I39  1  0.13837925  0.15410028  0.52415524  1
  I  I40  1  0.29833039  0.01944219  0.80818515  1
  I  I41  1  0.78769794  0.98357661  0.81313345  1
  I  I42  1  0.42481976  0.76799170  0.02856263  1
  I  I43  1  0.77313562  0.48053415  0.29349368  1
  I  I44  1  0.25493816  0.49701098  0.26190255  1
  I  I45  1  0.92401752  0.73194163  0.47175338  1
  I  I46  1  0.28749762  0.51640676  0.68690573  1
  I  I47  1  0.79814407  0.48044001  0.69185311  1
