# generated using pymatgen
data_AgH10C2I6N5
_symmetry_space_group_name_H-M   'P 1'
_cell_length_a   8.71647529
_cell_length_b   11.12251001
_cell_length_c   8.78024224
_cell_angle_alpha   91.06895888
_cell_angle_beta   89.98400939
_cell_angle_gamma   89.99528402
_symmetry_Int_Tables_number   1
_chemical_formula_structural   AgH10C2I6N5
_chemical_formula_sum   'Ag2 H20 C4 I12 N10'
_cell_volume   851.08825952
_cell_formula_units_Z   2
loop_
 _symmetry_equiv_pos_site_id
 _symmetry_equiv_pos_as_xyz
  1  'x, y, z'
loop_
 _atom_site_type_symbol
 _atom_site_label
 _atom_site_symmetry_multiplicity
 _atom_site_fract_x
 _atom_site_fract_y
 _atom_site_fract_z
 _atom_site_occupancy
  C  C0  1  0.51608636  0.28299128  0.48855686  1
  C  C1  1  0.01584305  0.21713592  0.01141390  1
  C  C2  1  0.48829391  0.80222674  0.51144662  1
  C  C3  1  0.98811709  0.69767545  0.98846239  1
  N  N4  1  0.59913398  0.21468000  0.57720851  1
  N  N5  1  0.47790189  0.25578095  0.34777514  1
  N  N6  1  0.09906067  0.28550970  0.92296831  1
  N  N7  1  0.97791540  0.24405299  0.15238532  1
  N  N8  1  0.56108134  0.74909580  0.62240822  1
  N  N9  1  0.38222211  0.75168567  0.42590295  1
  N  N10  1  0.06106249  0.75077944  0.87755982  1
  N  N11  1  0.88202901  0.74829391  0.07402190  1
  H  H12  1  0.47341335  0.36795527  0.53717289  1
  H  H13  1  0.62600418  0.24314710  0.68504125  1
  H  H14  1  0.64373903  0.13407281  0.54060465  1
  H  H15  1  0.40601181  0.31335557  0.29162452  1
  H  H16  1  0.51403079  0.17761176  0.29495465  1
  H  H17  1  0.97282817  0.13239355  0.96249887  1
  H  H18  1  0.12573155  0.25731722  0.81496784  1
  H  H19  1  0.14400192  0.36589622  0.95994927  1
  H  H20  1  0.90591857  0.18645532  0.20841794  1
  H  H21  1  0.01432845  0.32201198  0.20544888  1
  H  H22  1  0.52041222  0.89472734  0.48637777  1
  H  H23  1  0.63628563  0.79898470  0.68788252  1
  H  H24  1  0.53209303  0.66444329  0.65627230  1
  H  H25  1  0.33382555  0.80004820  0.34055280  1
  H  H26  1  0.34568642  0.66495714  0.43945998  1
  H  H27  1  0.02005664  0.60513413  0.01348330  1
  H  H28  1  0.13625404  0.70084093  0.81207047  1
  H  H29  1  0.03223678  0.83547655  0.84373565  1
  H  H30  1  0.83351882  0.69994955  0.15933131  1
  H  H31  1  0.84564071  0.83506636  0.06051136  1
  N  N32  1  0.40819384  0.95406726  0.00622563  1
  N  N33  1  0.90839750  0.54596801  0.49372450  1
  Ag  Ag34  1  0.88224139  0.99514172  0.52109022  1
  Ag  Ag35  1  0.38224455  0.50496465  0.97870281  1
  I  I36  1  0.64152765  0.36104338  0.98650959  1
  I  I37  1  0.26100636  0.00325102  0.19614244  1
  I  I38  1  0.72288109  0.01174485  0.25380102  1
  I  I39  1  0.14138118  0.13918935  0.51366367  1
  I  I40  1  0.29610528  0.00701859  0.79501369  1
  I  I41  1  0.76861707  0.98729625  0.81085205  1
  I  I42  1  0.46363934  0.76449817  0.01665221  1
  I  I43  1  0.76123598  0.49673155  0.30387366  1
  I  I44  1  0.22300880  0.48816173  0.24614818  1
  I  I45  1  0.96378240  0.73553048  0.48323846  1
  I  I46  1  0.26870377  0.51263622  0.68900651  1
  I  I47  1  0.79628815  0.49306694  0.70499196  1
