# generated using pymatgen
data_H10RhC2I6N5
_symmetry_space_group_name_H-M   'P 1'
_cell_length_a   8.57330553
_cell_length_b   10.69182370
_cell_length_c   8.64715178
_cell_angle_alpha   93.47417103
_cell_angle_beta   85.77000948
_cell_angle_gamma   87.70218731
_symmetry_Int_Tables_number   1
_chemical_formula_structural   H10RhC2I6N5
_chemical_formula_sum   'H20 Rh2 C4 I12 N10'
_cell_volume   788.23196497
_cell_formula_units_Z   2
loop_
 _symmetry_equiv_pos_site_id
 _symmetry_equiv_pos_as_xyz
  1  'x, y, z'
loop_
 _atom_site_type_symbol
 _atom_site_label
 _atom_site_symmetry_multiplicity
 _atom_site_fract_x
 _atom_site_fract_y
 _atom_site_fract_z
 _atom_site_occupancy
  C  C0  1  0.50088156  0.28210515  0.50115331  1
  C  C1  1  0.98549969  0.21323384  0.98512237  1
  C  C2  1  0.53757504  0.78889727  0.51726018  1
  C  C3  1  0.99759391  0.70592160  0.97421442  1
  N  N4  1  0.59495759  0.24285664  0.60214652  1
  N  N5  1  0.43049478  0.20939548  0.40328940  1
  N  N6  1  0.07652891  0.26563078  0.88195683  1
  N  N7  1  0.88858537  0.27183159  0.09191624  1
  N  N8  1  0.59156584  0.72670634  0.63038112  1
  N  N9  1  0.42482408  0.75630492  0.43324135  1
  N  N10  1  0.08366165  0.77724367  0.88763668  1
  N  N11  1  0.87983454  0.74481477  0.07207947  1
  H  H12  1  0.47936741  0.38299671  0.49795788  1
  H  H13  1  0.64596111  0.30721372  0.67320339  1
  H  H14  1  0.62499377  0.15026253  0.61275071  1
  H  H15  1  0.36152707  0.24761121  0.32578284  1
  H  H16  1  0.44477429  0.11418380  0.39878307  1
  H  H17  1  0.99100762  0.11097089  0.98141349  1
  H  H18  1  0.14722412  0.20870969  0.80347992  1
  H  H19  1  0.08015589  0.36016896  0.87205166  1
  H  H20  1  0.82482434  0.22005588  0.16756527  1
  H  H21  1  0.86626548  0.36693569  0.10197519  1
  H  H22  1  0.59659626  0.87438783  0.48976037  1
  H  H23  1  0.68215436  0.76208637  0.68673605  1
  H  H24  1  0.55039638  0.64217951  0.65963781  1
  H  H25  1  0.40542545  0.81428835  0.34170491  1
  H  H26  1  0.35195241  0.68093488  0.44951774  1
  H  H27  1  0.02929141  0.60580334  0.96326525  1
  H  H28  1  0.17313429  0.73440052  0.81583884  1
  H  H29  1  0.05980925  0.87075622  0.87857861  1
  H  H30  1  0.81888340  0.68056526  0.13390848  1
  H  H31  1  0.84725690  0.83790264  0.09671733  1
  N  N32  1  0.41824698  0.90961548  0.18905484  1
  N  N33  1  0.18024121  0.59504228  0.43023234  1
  Rh  Rh34  1  0.02395437  0.98878425  0.47315685  1
  Rh  Rh35  1  0.47544623  0.52014267  0.02830719  1
  I  I36  1  0.47374170  0.26456117  0.00907394  1
  I  I37  1  0.19447642  0.99331954  0.20297629  1
  I  I38  1  0.77632444  0.00915057  0.29281913  1
  I  I39  1  0.01087380  0.24479941  0.48566743  1
  I  I40  1  0.25860094  0.00391822  0.66895987  1
  I  I41  1  0.81647680  0.98729001  0.72785245  1
  I  I42  1  0.47303193  0.77456424  0.00789297  1
  I  I43  1  0.66368578  0.51906320  0.26747654  1
  I  I44  1  0.21709080  0.49285851  0.21810967  1
  I  I45  1  0.99934261  0.73210027  0.46573638  1
  I  I46  1  0.30531283  0.51357589  0.77235889  1
  I  I47  1  0.74016831  0.49392121  0.82940328  1
