# generated using pymatgen
data_YH10C2I6N5
_symmetry_space_group_name_H-M   'P 1'
_cell_length_a   8.66043024
_cell_length_b   11.15209251
_cell_length_c   8.87023547
_cell_angle_alpha   84.99902637
_cell_angle_beta   90.00789744
_cell_angle_gamma   90.00486168
_symmetry_Int_Tables_number   1
_chemical_formula_structural   YH10C2I6N5
_chemical_formula_sum   'Y2 H20 C4 I12 N10'
_cell_volume   853.44306685
_cell_formula_units_Z   2
loop_
 _symmetry_equiv_pos_site_id
 _symmetry_equiv_pos_as_xyz
  1  'x, y, z'
loop_
 _atom_site_type_symbol
 _atom_site_label
 _atom_site_symmetry_multiplicity
 _atom_site_fract_x
 _atom_site_fract_y
 _atom_site_fract_z
 _atom_site_occupancy
  C  C0  1  0.50973076  0.29353518  0.48356678  1
  C  C1  1  0.00956022  0.20645900  0.01650952  1
  C  C2  1  0.47883339  0.78792801  0.49834438  1
  C  C3  1  0.97878407  0.71210772  0.00171641  1
  N  N4  1  0.61017416  0.24249748  0.57951575  1
  N  N5  1  0.42705104  0.23800047  0.38707633  1
  N  N6  1  0.11004250  0.25741849  0.92044531  1
  N  N7  1  0.92693505  0.26207158  0.11285735  1
  N  N8  1  0.59042335  0.76357734  0.59513080  1
  N  N9  1  0.43007655  0.71620410  0.39768766  1
  N  N10  1  0.09040359  0.73642632  0.90495957  1
  N  N11  1  0.93004432  0.78386273  0.10231166  1
  H  H12  1  0.49178579  0.39016009  0.48544497  1
  H  H13  1  0.66914892  0.29382720  0.65005237  1
  H  H14  1  0.63468588  0.15252276  0.58839658  1
  H  H15  1  0.35124821  0.28729875  0.31809862  1
  H  H16  1  0.43945655  0.14875576  0.37179108  1
  H  H17  1  0.99167902  0.10981029  0.01471475  1
  H  H18  1  0.16899139  0.20602016  0.84999311  1
  H  H19  1  0.13454144  0.34742311  0.91142873  1
  H  H20  1  0.85115544  0.21278898  0.18187154  1
  H  H21  1  0.93930343  0.35129948  0.12803612  1
  H  H22  1  0.41629166  0.87279361  0.50010879  1
  H  H23  1  0.62123024  0.83023054  0.66165669  1
  H  H24  1  0.67514278  0.68985631  0.58435917  1
  H  H25  1  0.34490337  0.74619379  0.32459307  1
  H  H26  1  0.48317207  0.63696213  0.37959713  1
  H  H27  1  0.91622249  0.62724360  0.99995189  1
  H  H28  1  0.12119320  0.66975953  0.83846374  1
  H  H29  1  0.17512829  0.81015037  0.91572276  1
  H  H30  1  0.84484877  0.75391506  0.17538404  1
  H  H31  1  0.98315300  0.86311751  0.12036636  1
  N  N32  1  0.30438242  0.90315627  0.94087647  1
  N  N33  1  0.80430015  0.59684512  0.55917215  1
  Y  Y34  1  0.97806613  0.99950519  0.51902435  1
  Y  Y35  1  0.47797158  0.50043775  0.98099579  1
  I  I36  1  0.52691360  0.24373703  0.98646842  1
  I  I37  1  0.20828988  0.97512642  0.27097945  1
  I  I38  1  0.71756992  0.00876271  0.30509294  1
  I  I39  1  0.02700067  0.25621929  0.51348180  1
  I  I40  1  0.29975184  0.00628883  0.72977798  1
  I  I41  1  0.79976881  0.98950550  0.79824625  1
  I  I42  1  0.49271047  0.78866972  0.99472856  1
  I  I43  1  0.70828139  0.52489639  0.22899022  1
  I  I44  1  0.21751445  0.49120544  0.19487675  1
  I  I45  1  0.99268130  0.71127413  0.50527605  1
  I  I46  1  0.29975007  0.51051260  0.70170311  1
  I  I47  1  0.79972574  0.49370313  0.77026146  1
