# generated using pymatgen
data_CuH10C2I6N5
_symmetry_space_group_name_H-M   'P 1'
_cell_length_a   8.99517309
_cell_length_b   10.51880177
_cell_length_c   8.79018299
_cell_angle_alpha   91.04401455
_cell_angle_beta   89.97367177
_cell_angle_gamma   89.96781732
_symmetry_Int_Tables_number   1
_chemical_formula_structural   CuH10C2I6N5
_chemical_formula_sum   'Cu2 H20 C4 I12 N10'
_cell_volume   831.57513169
_cell_formula_units_Z   2
loop_
 _symmetry_equiv_pos_site_id
 _symmetry_equiv_pos_as_xyz
  1  'x, y, z'
loop_
 _atom_site_type_symbol
 _atom_site_label
 _atom_site_symmetry_multiplicity
 _atom_site_fract_x
 _atom_site_fract_y
 _atom_site_fract_z
 _atom_site_occupancy
  C  C0  1  0.50019334  0.29225349  0.51059771  1
  C  C1  1  0.00165518  0.20777117  0.98917610  1
  C  C2  1  0.49636318  0.79069902  0.50038992  1
  C  C3  1  0.99592825  0.70978537  0.99892638  1
  N  N4  1  0.53807352  0.23804663  0.63775464  1
  N  N5  1  0.41337938  0.24180036  0.40558388  1
  N  N6  1  0.03768571  0.26205702  0.86149717  1
  N  N7  1  0.91500196  0.25753128  0.09488207  1
  N  N8  1  0.60862147  0.74386334  0.57620395  1
  N  N9  1  0.43692859  0.73767083  0.37865663  1
  N  N10  1  0.10835139  0.75721485  0.92385318  1
  N  N11  1  0.93658743  0.76164354  0.12146431  1
  H  H12  1  0.54779885  0.38557053  0.48808091  1
  H  H13  1  0.60910257  0.28662428  0.70931251  1
  H  H14  1  0.49149823  0.15384729  0.67207488  1
  H  H15  1  0.38754465  0.29301659  0.31190106  1
  H  H16  1  0.36452714  0.15419642  0.41361209  1
  H  H17  1  0.05080146  0.11493571  0.01145937  1
  H  H18  1  0.10882478  0.21395385  0.78947212  1
  H  H19  1  0.98983660  0.34584079  0.82739584  1
  H  H20  1  0.89089225  0.20624373  0.18903922  1
  H  H21  1  0.86478389  0.34464981  0.08727581  1
  H  H22  1  0.44585964  0.87873564  0.54416462  1
  H  H23  1  0.64656159  0.79156655  0.67091565  1
  H  H24  1  0.66209001  0.66186052  0.54388874  1
  H  H25  1  0.35729343  0.78714051  0.32072209  1
  H  H26  1  0.48289890  0.65868470  0.32746453  1
  H  H27  1  0.94531655  0.62230287  0.95383794  1
  H  H28  1  0.14628140  0.71050388  0.82842131  1
  H  H29  1  0.16201322  0.83866528  0.95764442  1
  H  H30  1  0.85687085  0.71176189  0.17881669  1
  H  H31  1  0.98255333  0.84011376  0.17367227  1
  N  N32  1  0.57555867  0.95015860  0.01655165  1
  N  N33  1  0.07544149  0.54991601  0.48388265  1
  Cu  Cu34  1  0.13006249  0.98069852  0.49045417  1
  Cu  Cu35  1  0.62982993  0.51907655  0.00995052  1
  I  I36  1  0.37771018  0.40731483  0.98013992  1
  I  I37  1  0.22962133  0.99444724  0.21824266  1
  I  I38  1  0.68712942  0.99391810  0.23189795  1
  I  I39  1  0.87788401  0.09263056  0.51997002  1
  I  I40  1  0.27368944  0.01769948  0.73906225  1
  I  I41  1  0.72817361  0.99389608  0.83372658  1
  I  I42  1  0.50777249  0.75124819  0.98940513  1
  I  I43  1  0.72948822  0.50482134  0.28191555  1
  I  I44  1  0.18710099  0.50610579  0.26840768  1
  I  I45  1  0.00754574  0.74882632  0.51076323  1
  I  I46  1  0.22786660  0.50630099  0.66684208  1
  I  I47  1  0.77302599  0.48245289  0.76073470  1
