# generated using pymatgen
data_ScH10C2I6N5
_symmetry_space_group_name_H-M   'P 1'
_cell_length_a   8.61822286
_cell_length_b   10.81664098
_cell_length_c   8.81553768
_cell_angle_alpha   96.01961548
_cell_angle_beta   89.97109079
_cell_angle_gamma   90.03832342
_symmetry_Int_Tables_number   1
_chemical_formula_structural   ScH10C2I6N5
_chemical_formula_sum   'Sc2 H20 C4 I12 N10'
_cell_volume   817.25483544
_cell_formula_units_Z   2
loop_
 _symmetry_equiv_pos_site_id
 _symmetry_equiv_pos_as_xyz
  1  'x, y, z'
loop_
 _atom_site_type_symbol
 _atom_site_label
 _atom_site_symmetry_multiplicity
 _atom_site_fract_x
 _atom_site_fract_y
 _atom_site_fract_z
 _atom_site_occupancy
  C  C0  1  0.50061679  0.29355970  0.51080761  1
  C  C1  1  0.00175316  0.20692545  0.98969278  1
  C  C2  1  0.52360688  0.79221271  0.51978655  1
  C  C3  1  0.02373509  0.70821174  0.98097474  1
  N  N4  1  0.55957486  0.22326259  0.60889639  1
  N  N5  1  0.38409719  0.26293404  0.41895816  1
  N  N6  1  0.05939982  0.27719315  0.89077492  1
  N  N7  1  0.88437760  0.23656659  0.08088747  1
  N  N8  1  0.58922593  0.71097216  0.60104745  1
  N  N9  1  0.41629343  0.76700846  0.41672930  1
  N  N10  1  0.08739670  0.78950481  0.89832414  1
  N  N11  1  0.91565259  0.73270629  0.08340550  1
  H  H12  1  0.55609798  0.38328913  0.50221170  1
  H  H13  1  0.64721168  0.25857331  0.67846330  1
  H  H14  1  0.50636368  0.14299507  0.63370458  1
  H  H15  1  0.34567904  0.32396172  0.34613401  1
  H  H16  1  0.32699997  0.17962448  0.41503780  1
  H  H17  1  0.05913577  0.11820632  0.99968660  1
  H  H18  1  0.14781405  0.24262842  0.82172881  1
  H  H19  1  0.00467744  0.35651085  0.86499419  1
  H  H20  1  0.84718122  0.17577043  0.15461216  1
  H  H21  1  0.82547383  0.31891303  0.08343494  1
  H  H22  1  0.56764251  0.88689965  0.54238440  1
  H  H23  1  0.66889961  0.74158461  0.68176107  1
  H  H24  1  0.55917549  0.61954811  0.59203409  1
  H  H25  1  0.37408774  0.84149163  0.36674614  1
  H  H26  1  0.33345048  0.68765685  0.41600972  1
  H  H27  1  0.07033468  0.61421796  0.96036844  1
  H  H28  1  0.16806250  0.75939995  0.81833500  1
  H  H29  1  0.05377461  0.88003947  0.90443810  1
  H  H30  1  0.87480127  0.65831010  0.13453524  1
  H  H31  1  0.83224879  0.81153483  0.08369393  1
  N  N32  1  0.69518155  0.90186699  0.07148751  1
  N  N33  1  0.19609056  0.59758161  0.42845066  1
  Sc  Sc34  1  0.01252985  0.00595648  0.49234011  1
  Sc  Sc35  1  0.51242494  0.49390121  0.00760765  1
  I  I36  1  0.47083413  0.24197282  0.00968520  1
  I  I37  1  0.18908925  0.98610631  0.22780296  1
  I  I38  1  0.69905339  1.00061375  0.29005038  1
  I  I39  1  0.97104672  0.25776159  0.48993857  1
  I  I40  1  0.26444054  0.01475953  0.69461074  1
  I  I41  1  0.80359033  0.98130520  0.73493623  1
  I  I42  1  0.50673932  0.78375072  0.01066460  1
  I  I43  1  0.68897113  0.51319433  0.27209264  1
  I  I44  1  0.19929671  0.49857188  0.21004172  1
  I  I45  1  0.00743504  0.71541967  0.48914018  1
  I  I46  1  0.30383953  0.51962505  0.76544148  1
  I  I47  1  0.76461396  0.48546220  0.80521491  1
