# generated using pymatgen
data_AlH10C2I6N5
_symmetry_space_group_name_H-M   'P 1'
_cell_length_a   8.86815729
_cell_length_b   11.44040276
_cell_length_c   8.31781069
_cell_angle_alpha   89.38668126
_cell_angle_beta   90.00142948
_cell_angle_gamma   90.00562733
_symmetry_Int_Tables_number   1
_chemical_formula_structural   AlH10C2I6N5
_chemical_formula_sum   'Al2 H20 C4 I12 N10'
_cell_volume   843.83755268
_cell_formula_units_Z   2
loop_
 _symmetry_equiv_pos_site_id
 _symmetry_equiv_pos_as_xyz
  1  'x, y, z'
loop_
 _atom_site_type_symbol
 _atom_site_label
 _atom_site_symmetry_multiplicity
 _atom_site_fract_x
 _atom_site_fract_y
 _atom_site_fract_z
 _atom_site_occupancy
  C  C0  1  0.50190391  0.29042627  0.48782935  1
  C  C1  1  0.00199502  0.20950086  0.01213619  1
  C  C2  1  0.50525407  0.78865896  0.50816828  1
  C  C3  1  0.00513450  0.71126737  0.99184737  1
  N  N4  1  0.59918640  0.23952633  0.58421969  1
  N  N5  1  0.40309717  0.23689115  0.39730150  1
  N  N6  1  0.09930438  0.26041028  0.91580798  1
  N  N7  1  0.90319472  0.26303902  0.10266239  1
  N  N8  1  0.60217942  0.73665636  0.60396146  1
  N  N9  1  0.41199545  0.73644192  0.40991874  1
  N  N10  1  0.10204916  0.76327320  0.89598725  1
  N  N11  1  0.91193727  0.76348495  0.09005797  1
  H  H12  1  0.50351150  0.38576952  0.48236823  1
  H  H13  1  0.67027679  0.29112098  0.65078095  1
  H  H14  1  0.60027498  0.15154980  0.60637690  1
  H  H15  1  0.33353963  0.28620945  0.32583694  1
  H  H16  1  0.39608429  0.14814202  0.38588588  1
  H  H17  1  0.00354964  0.11417443  0.01756504  1
  H  H18  1  0.17035310  0.20882160  0.84919307  1
  H  H19  1  0.10042672  0.34840215  0.89365447  1
  H  H20  1  0.83361990  0.21371892  0.17411668  1
  H  H21  1  0.89624321  0.35179551  0.11413096  1
  H  H22  1  0.50174048  0.88395495  0.51029682  1
  H  H23  1  0.66634174  0.78689397  0.67855460  1
  H  H24  1  0.61583780  0.64801285  0.61219701  1
  H  H25  1  0.34821161  0.78704485  0.33314702  1
  H  H26  1  0.40644971  0.64801017  0.39758646  1
  H  H27  1  0.00164678  0.61600121  0.98974441  1
  H  H28  1  0.16621439  0.71303650  0.82141368  1
  H  H29  1  0.11573634  0.85193386  0.88773768  1
  H  H30  1  0.84812747  0.71290310  0.16685448  1
  H  H31  1  0.90634440  0.85195411  0.10235753  1
  N  N32  1  0.43050428  0.99738247  0.99382167  1
  N  N33  1  0.93053418  0.50303716  0.50646131  1
  Al  Al34  1  0.89730571  0.00068004  0.51244670  1
  Al  Al35  1  0.39731966  0.49951016  0.98750867  1
  I  I36  1  0.52869247  0.30322187  0.99858312  1
  I  I37  1  0.26889738  0.97814227  0.17742814  1
  I  I38  1  0.70540751  0.01139215  0.27573329  1
  I  I39  1  0.02852497  0.19704273  0.50147616  1
  I  I40  1  0.31418029  0.02148186  0.77571167  1
  I  I41  1  0.76207176  0.99003312  0.78944873  1
  I  I42  1  0.52702904  0.69570142  0.01193030  1
  I  I43  1  0.76898940  0.52176249  0.32268639  1
  I  I44  1  0.20544000  0.48864209  0.22422860  1
  I  I45  1  0.02718963  0.80457012  0.48800370  1
  I  I46  1  0.26204868  0.50998163  0.71051643  1
  I  I47  1  0.81412241  0.47845477  0.72442291  1
