# generated using pymatgen
data_MgH10PbC2(I3N2)2
_symmetry_space_group_name_H-M   'P 1'
_cell_length_a   8.58731174
_cell_length_b   11.96561719
_cell_length_c   8.58076742
_cell_angle_alpha   89.95413352
_cell_angle_beta   89.99996801
_cell_angle_gamma   90.00090949
_symmetry_Int_Tables_number   1
_chemical_formula_structural   MgH10PbC2(I3N2)2
_chemical_formula_sum   'Mg2 H20 Pb2 C4 I12 N8'
_cell_volume   881.69489255
_cell_formula_units_Z   2
loop_
 _symmetry_equiv_pos_site_id
 _symmetry_equiv_pos_as_xyz
  1  'x, y, z'
loop_
 _atom_site_type_symbol
 _atom_site_label
 _atom_site_symmetry_multiplicity
 _atom_site_fract_x
 _atom_site_fract_y
 _atom_site_fract_z
 _atom_site_occupancy
  C  C0  1  0.49334033  0.28870083  0.49603969  1
  C  C1  1  0.99340793  0.21128703  0.00397312  1
  C  C2  1  0.50674179  0.78872601  0.50371851  1
  C  C3  1  0.00665997  0.71128205  0.99626881  1
  N  N4  1  0.59189071  0.23908457  0.59020119  1
  N  N5  1  0.39835353  0.23851602  0.39901346  1
  N  N6  1  0.09197591  0.26090352  0.90985515  1
  N  N7  1  0.89839373  0.26146992  0.10099268  1
  N  N8  1  0.60103019  0.73850047  0.60137117  1
  N  N9  1  0.40874387  0.73916042  0.40895213  1
  N  N10  1  0.10097478  0.76151824  0.89863378  1
  N  N11  1  0.90863669  0.76083720  0.09100419  1
  H  H12  1  0.48974373  0.37975966  0.49891248  1
  H  H13  1  0.66164415  0.28672573  0.65995769  1
  H  H14  1  0.60194873  0.15436225  0.59912524  1
  H  H15  1  0.32546205  0.28618359  0.33227526  1
  H  H16  1  0.39390897  0.15388490  0.38477495  1
  H  H17  1  0.98979511  0.12022811  0.00109268  1
  H  H18  1  0.16175782  0.21326715  0.84011203  1
  H  H19  1  0.10206795  0.34563118  0.90096276  1
  H  H20  1  0.82548354  0.21380078  0.16770180  1
  H  H21  1  0.89395896  0.34609678  0.11523636  1
  H  H22  1  0.51034323  0.87978923  0.50074489  1
  H  H23  1  0.67129600  0.78615495  0.67082154  1
  H  H24  1  0.61016114  0.65370136  0.61104175  1
  H  H25  1  0.34165648  0.78680151  0.33655430  1
  H  H26  1  0.39414794  0.65459994  0.40471662  1
  H  H27  1  0.01027232  0.62021917  0.99923665  1
  H  H28  1  0.17125793  0.71386331  0.82920067  1
  H  H29  1  0.11010202  0.84631109  0.88896835  1
  H  H30  1  0.84152602  0.71319383  0.16337646  1
  H  H31  1  0.89401411  0.84540047  0.09522418  1
  Mg  Mg32  1  0.49961772  0.99997199  0.99903523  1
  Mg  Mg33  1  0.99962122  0.50004796  0.50098479  1
  Pb  Pb34  1  0.00115847  0.00006786  0.49845537  1
  Pb  Pb35  1  0.50115196  0.49995294  0.00155560  1
  I  I36  1  0.49777830  0.23794184  0.99434322  1
  I  I37  1  0.21745915  0.98782963  0.19600663  1
  I  I38  1  0.69814554  0.01483823  0.28020159  1
  I  I39  1  0.99773725  0.26207435  0.50569441  1
  I  I40  1  0.30204955  0.01118450  0.71633431  1
  I  I41  1  0.78117188  0.98616697  0.79971288  1
  I  I42  1  0.50229627  0.76205672  0.00495301  1
  I  I43  1  0.71744486  0.51216579  0.30400811  1
  I  I44  1  0.19813121  0.48517197  0.21979553  1
  I  I45  1  0.00234082  0.73796011  0.49499644  1
  I  I46  1  0.28117576  0.51385944  0.70029098  1
  I  I47  1  0.80204172  0.48881141  0.78367613  1
