# generated using pymatgen
data_BaMgH12C2(I3N)2
_symmetry_space_group_name_H-M   'P 1'
_cell_length_a   8.62835187
_cell_length_b   12.44463627
_cell_length_c   8.43286461
_cell_angle_alpha   88.09181180
_cell_angle_beta   90.00234862
_cell_angle_gamma   90.00751508
_symmetry_Int_Tables_number   1
_chemical_formula_structural   BaMgH12C2(I3N)2
_chemical_formula_sum   'Ba2 Mg2 H24 C4 I12 N4'
_cell_volume   904.99104554
_cell_formula_units_Z   2
loop_
 _symmetry_equiv_pos_site_id
 _symmetry_equiv_pos_as_xyz
  1  'x, y, z'
loop_
 _atom_site_type_symbol
 _atom_site_label
 _atom_site_symmetry_multiplicity
 _atom_site_fract_x
 _atom_site_fract_y
 _atom_site_fract_z
 _atom_site_occupancy
  C  C0  1  0.39708399  0.25041806  0.41550603  1
  C  C1  1  0.89818609  0.24972878  0.08561084  1
  C  C2  1  0.60291279  0.74958541  0.58450897  1
  C  C3  1  0.10182065  0.75027240  0.91440103  1
  N  N4  1  0.53583417  0.24944100  0.51955001  1
  N  N5  1  0.03631493  0.25058356  0.98072557  1
  N  N6  1  0.46416219  0.75056368  0.48046560  1
  N  N7  1  0.96369225  0.74941413  0.01928732  1
  H  H8  1  0.43527363  0.25087980  0.29152205  1
  H  H9  1  0.32982403  0.17744257  0.44175167  1
  H  H10  1  0.32797244  0.32197713  0.43822687  1
  H  H11  1  0.60317860  0.18232411  0.49653476  1
  H  H12  1  0.60325400  0.31780108  0.49640445  1
  H  H13  1  0.50690326  0.24663868  0.64000868  1
  H  H14  1  0.93715752  0.24928622  0.20933963  1
  H  H15  1  0.82879261  0.17820147  0.06338989  1
  H  H16  1  0.83092963  0.32275738  0.05979934  1
  H  H17  1  0.10373939  0.18219055  0.00355604  1
  H  H18  1  0.10390460  0.31767480  0.00329025  1
  H  H19  1  0.00673716  0.25335580  0.86043835  1
  H  H20  1  0.56472554  0.74912457  0.70849262  1
  H  H21  1  0.67202268  0.67802509  0.56178723  1
  H  H22  1  0.67017521  0.82255988  0.55826161  1
  H  H23  1  0.39681771  0.81768103  0.50348295  1
  H  H24  1  0.39674168  0.68220320  0.50361136  1
  H  H25  1  0.49309192  0.75336656  0.36000886  1
  H  H26  1  0.06284836  0.75071729  0.79067271  1
  H  H27  1  0.17121347  0.82179907  0.93662572  1
  H  H28  1  0.16907693  0.67724341  0.94020883  1
  H  H29  1  0.89626503  0.81780631  0.99645969  1
  H  H30  1  0.89610463  0.68232202  0.99672182  1
  H  H31  1  0.99327066  0.74664125  0.13957500  1
  Mg  Mg32  1  0.50000390  0.00000528  0.00000886  1
  Mg  Mg33  1  0.99999433  0.50000162  0.49999719  1
  Ba  Ba34  1  0.00000245  0.00000260  0.50000787  1
  Ba  Ba35  1  0.49999701  0.50000695  0.99999690  1
  I  I36  1  0.47631448  0.23307065  0.93836886  1
  I  I37  1  0.19947163  0.00932227  0.15518833  1
  I  I38  1  0.65685155  0.02254439  0.30667598  1
  I  I39  1  0.97584178  0.26693224  0.56212978  1
  I  I40  1  0.34315388  0.97746469  0.69334167  1
  I  I41  1  0.80053531  0.99068171  0.84482964  1
  I  I42  1  0.52369103  0.76693912  0.06164951  1
  I  I43  1  0.69954057  0.49049174  0.34466597  1
  I  I44  1  0.15701026  0.47756558  0.19343765  1
  I  I45  1  0.02415061  0.73307265  0.43788016  1
  I  I46  1  0.30045118  0.50951076  0.65533031  1
  I  I47  1  0.84298601  0.52243972  0.80656216  1
