# generated using pymatgen
data_MgHgH10C2(I3N2)2
_symmetry_space_group_name_H-M   'P 1'
_cell_length_a   8.63291567
_cell_length_b   11.69876336
_cell_length_c   8.62648907
_cell_angle_alpha   90.02803930
_cell_angle_beta   90.00023551
_cell_angle_gamma   89.99792205
_symmetry_Int_Tables_number   1
_chemical_formula_structural   MgHgH10C2(I3N2)2
_chemical_formula_sum   'Mg2 Hg2 H20 C4 I12 N8'
_cell_volume   871.22730735
_cell_formula_units_Z   2
loop_
 _symmetry_equiv_pos_site_id
 _symmetry_equiv_pos_as_xyz
  1  'x, y, z'
loop_
 _atom_site_type_symbol
 _atom_site_label
 _atom_site_symmetry_multiplicity
 _atom_site_fract_x
 _atom_site_fract_y
 _atom_site_fract_z
 _atom_site_occupancy
  C  C0  1  0.49459549  0.28954274  0.49611115  1
  C  C1  1  0.99463885  0.21045717  0.00389837  1
  C  C2  1  0.50428205  0.78948667  0.50404759  1
  C  C3  1  0.00424774  0.71051457  0.99593804  1
  N  N4  1  0.59355408  0.23936178  0.58924296  1
  N  N5  1  0.39859568  0.23729532  0.40179474  1
  N  N6  1  0.09360797  0.26063999  0.91078699  1
  N  N7  1  0.89865274  0.26270223  0.09823417  1
  N  N8  1  0.59644081  0.73709685  0.60175476  1
  N  N9  1  0.40854627  0.73948036  0.40722280  1
  N  N10  1  0.09639489  0.76291633  0.89822368  1
  N  N11  1  0.90850393  0.76051175  0.09275678  1
  H  H12  1  0.49151675  0.38279414  0.49730872  1
  H  H13  1  0.66392792  0.28902960  0.65688437  1
  H  H14  1  0.60384505  0.15270309  0.59897517  1
  H  H15  1  0.32596328  0.28573646  0.33494370  1
  H  H16  1  0.39431299  0.15052920  0.38914405  1
  H  H17  1  0.99153744  0.11720689  0.00266258  1
  H  H18  1  0.16397000  0.21097420  0.84313175  1
  H  H19  1  0.10391956  0.34729709  0.90108809  1
  H  H20  1  0.82600509  0.21425833  0.16507198  1
  H  H21  1  0.89438846  0.34946774  0.11092109  1
  H  H22  1  0.50779053  0.88273135  0.50310598  1
  H  H23  1  0.66542874  0.78551912  0.67251465  1
  H  H24  1  0.60490019  0.65020753  0.61002485  1
  H  H25  1  0.34289182  0.78913722  0.33512054  1
  H  H26  1  0.39443513  0.65292927  0.40103002  1
  H  H27  1  0.00778469  0.61727062  0.99688169  1
  H  H28  1  0.16539967  0.71449351  0.82746393  1
  H  H29  1  0.10482729  0.84980087  0.88995087  1
  H  H30  1  0.84286521  0.71085705  0.16485752  1
  H  H31  1  0.89437058  0.84706584  0.09894358  1
  Mg  Mg32  1  0.50421976  0.00034740  0.99872097  1
  Mg  Mg33  1  0.00421387  0.49966427  0.50129101  1
  Hg  Hg34  1  0.01025176  0.00025254  0.49137572  1
  Hg  Hg35  1  0.51025089  0.49975788  0.00862420  1
  I  I36  1  0.49511748  0.26938792  0.99415983  1
  I  I37  1  0.23480695  0.98431771  0.19060626  1
  I  I38  1  0.69302533  0.01565727  0.26555817  1
  I  I39  1  0.99505942  0.23061870  0.50590962  1
  I  I40  1  0.30718630  0.01627846  0.73477332  1
  I  I41  1  0.76550564  0.98386868  0.80482852  1
  I  I42  1  0.49884787  0.73045830  0.00347378  1
  I  I43  1  0.73479991  0.51569313  0.30939807  1
  I  I44  1  0.19301863  0.48435032  0.23445323  1
  I  I45  1  0.99890166  0.76954900  0.49648424  1
  I  I46  1  0.26549769  0.51612343  0.69518306  1
  I  I47  1  0.80717526  0.48372307  0.76522762  1
