# generated using pymatgen
data_MgH10PtC2(I3N2)2
_symmetry_space_group_name_H-M   'P 1'
_cell_length_a   8.19689220
_cell_length_b   11.63831478
_cell_length_c   8.90564425
_cell_angle_alpha   90.03865062
_cell_angle_beta   90.00279378
_cell_angle_gamma   89.99565989
_symmetry_Int_Tables_number   1
_chemical_formula_structural   MgH10PtC2(I3N2)2
_chemical_formula_sum   'Mg2 H20 Pt2 C4 I12 N8'
_cell_volume   849.58055755
_cell_formula_units_Z   2
loop_
 _symmetry_equiv_pos_site_id
 _symmetry_equiv_pos_as_xyz
  1  'x, y, z'
loop_
 _atom_site_type_symbol
 _atom_site_label
 _atom_site_symmetry_multiplicity
 _atom_site_fract_x
 _atom_site_fract_y
 _atom_site_fract_z
 _atom_site_occupancy
  C  C0  1  0.48138679  0.29058431  0.48285467  1
  C  C1  1  0.98169420  0.20940797  0.01705826  1
  C  C2  1  0.51186377  0.78476548  0.51908118  1
  C  C3  1  0.01155726  0.71525053  0.98094707  1
  N  N4  1  0.56185350  0.24684751  0.59625776  1
  N  N5  1  0.39499063  0.23178753  0.38500346  1
  N  N6  1  0.06232076  0.25325836  0.90384360  1
  N  N7  1  0.89547496  0.26814130  0.11511098  1
  N  N8  1  0.59438298  0.72795654  0.62080385  1
  N  N9  1  0.43334578  0.73935975  0.40514941  1
  N  N10  1  0.09382970  0.77202463  0.87903325  1
  N  N11  1  0.93300909  0.76072204  0.09481462  1
  H  H12  1  0.48774228  0.38357084  0.46782923  1
  H  H13  1  0.62583018  0.30040373  0.66620854  1
  H  H14  1  0.56517321  0.16076859  0.61898764  1
  H  H15  1  0.33842835  0.27436293  0.29938174  1
  H  H16  1  0.37687107  0.14500696  0.39195933  1
  H  H17  1  0.98772884  0.11639340  0.03171654  1
  H  H18  1  0.12617970  0.19973910  0.83374727  1
  H  H19  1  0.06594888  0.33938370  0.88141416  1
  H  H20  1  0.83867499  0.22546489  0.20050780  1
  H  H21  1  0.87761551  0.35496881  0.10846995  1
  H  H22  1  0.50721365  0.87804959  0.53092895  1
  H  H23  1  0.65114711  0.77287905  0.70457029  1
  H  H24  1  0.60699556  0.64060574  0.62115362  1
  H  H25  1  0.37113157  0.79152585  0.33254048  1
  H  H26  1  0.43009334  0.65320118  0.38494662  1
  H  H27  1  0.00716295  0.62194518  0.96934311  1
  H  H28  1  0.15063738  0.72706602  0.79532981  1
  H  H29  1  0.10615943  0.85938776  0.87845687  1
  H  H30  1  0.87101201  0.70857985  0.16759668  1
  H  H31  1  0.92951356  0.84690888  0.11478925  1
  Mg  Mg32  1  0.56453248  0.03071487  0.05286550  1
  Mg  Mg33  1  0.06462373  0.46902875  0.44720076  1
  Pt  Pt34  1  0.01090503  0.01920778  0.48476307  1
  Pt  Pt35  1  0.51095445  0.48079692  0.01527297  1
  I  I36  1  0.47347442  0.25604102  0.98292857  1
  I  I37  1  0.26887166  0.97504973  0.16164610  1
  I  I38  1  0.73274993  0.01389575  0.32592728  1
  I  I39  1  0.97314754  0.24391198  0.51741794  1
  I  I40  1  0.25467324  0.02097793  0.67398349  1
  I  I41  1  0.74585087  0.98244746  0.81471457  1
  I  I42  1  0.51023823  0.70552022  0.01411644  1
  I  I43  1  0.76904268  0.52490270  0.33824753  1
  I  I44  1  0.23284834  0.48622216  0.17416667  1
  I  I45  1  0.01047680  0.79448839  0.48564353  1
  I  I46  1  0.24591521  0.51759037  0.68526649  1
  I  I47  1  0.75474575  0.47894895  0.82610783  1
