# generated using pymatgen
data_BaMgH10C2(I3N2)2
_symmetry_space_group_name_H-M   'P 1'
_cell_length_a   8.70947709
_cell_length_b   12.26603070
_cell_length_c   8.70240528
_cell_angle_alpha   89.96945662
_cell_angle_beta   90.00022335
_cell_angle_gamma   89.99857263
_symmetry_Int_Tables_number   1
_chemical_formula_structural   BaMgH10C2(I3N2)2
_chemical_formula_sum   'Ba2 Mg2 H20 C4 I12 N8'
_cell_volume   929.68403153
_cell_formula_units_Z   2
loop_
 _symmetry_equiv_pos_site_id
 _symmetry_equiv_pos_as_xyz
  1  'x, y, z'
loop_
 _atom_site_type_symbol
 _atom_site_label
 _atom_site_symmetry_multiplicity
 _atom_site_fract_x
 _atom_site_fract_y
 _atom_site_fract_z
 _atom_site_occupancy
  C  C0  1  0.49304314  0.28874180  0.49613345  1
  C  C1  1  0.99312858  0.21124460  0.00387163  1
  C  C2  1  0.50709117  0.78875705  0.50360274  1
  C  C3  1  0.00702090  0.71125084  0.99636662  1
  N  N4  1  0.59025304  0.23990628  0.58861709  1
  N  N5  1  0.39923412  0.23967638  0.40043308  1
  N  N6  1  0.09034520  0.26008409  0.91144745  1
  N  N7  1  0.89927234  0.26030936  0.09957317  1
  N  N8  1  0.60001395  0.73958619  0.60008834  1
  N  N9  1  0.41060039  0.74001459  0.41029206  1
  N  N10  1  0.09996809  0.76040778  0.89991569  1
  N  N11  1  0.91049175  0.76000541  0.08965069  1
  H  H12  1  0.48952383  0.37760295  0.49933645  1
  H  H13  1  0.66025231  0.28559055  0.65706134  1
  H  H14  1  0.59750297  0.15710974  0.59799744  1
  H  H15  1  0.32604338  0.28563716  0.33535792  1
  H  H16  1  0.39763742  0.15717213  0.38494390  1
  H  H17  1  0.98958476  0.12238484  0.00067460  1
  H  H18  1  0.16038090  0.21440083  0.84303064  1
  H  H19  1  0.09762916  0.34287790  0.90210237  1
  H  H20  1  0.82606054  0.21434584  0.16461635  1
  H  H21  1  0.89768333  0.34281182  0.11506799  1
  H  H22  1  0.51057532  0.87761860  0.50045961  1
  H  H23  1  0.66883542  0.78553718  0.66970778  1
  H  H24  1  0.61000492  0.65680843  0.60711616  1
  H  H25  1  0.34485441  0.78571602  0.33769641  1
  H  H26  1  0.39504852  0.65751552  0.40922641  1
  H  H27  1  0.01050042  0.62238764  0.99951110  1
  H  H28  1  0.16881065  0.71447276  0.83031574  1
  H  H29  1  0.10995755  0.84320616  0.89289513  1
  H  H30  1  0.84471358  0.71428610  0.16221086  1
  H  H31  1  0.89491709  0.84248057  0.09069849  1
  Mg  Mg32  1  0.49914633  0.99993519  0.99885320  1
  Mg  Mg33  1  0.99914490  0.50008437  0.50117116  1
  Ba  Ba34  1  0.00041707  0.00008471  0.49849010  1
  Ba  Ba35  1  0.50040960  0.49993522  0.00152665  1
  I  I36  1  0.49834389  0.23129368  0.99284630  1
  I  I37  1  0.21636360  0.98813586  0.18084183  1
  I  I38  1  0.68182978  0.01760884  0.28274729  1
  I  I39  1  0.99832651  0.26872517  0.50719813  1
  I  I40  1  0.31756338  0.01035181  0.71536563  1
  I  I41  1  0.78348511  0.98382310  0.81639877  1
  I  I42  1  0.50239370  0.76865176  0.00654657  1
  I  I43  1  0.71634139  0.51185237  0.31918541  1
  I  I44  1  0.18181335  0.48240380  0.21725142  1
  I  I45  1  0.00241399  0.73136545  0.49340123  1
  I  I46  1  0.28349117  0.51621501  0.68360737  1
  I  I47  1  0.81755638  0.48964951  0.78465500  1
