# generated using pymatgen
data_MgSnH10C2(I3N2)2
_symmetry_space_group_name_H-M   'P 1'
_cell_length_a   8.55584983
_cell_length_b   11.87674651
_cell_length_c   8.54884380
_cell_angle_alpha   89.96220027
_cell_angle_beta   89.99990772
_cell_angle_gamma   89.99982066
_symmetry_Int_Tables_number   1
_chemical_formula_structural   MgSnH10C2(I3N2)2
_chemical_formula_sum   'Mg2 Sn2 H20 C4 I12 N8'
_cell_volume   868.69621243
_cell_formula_units_Z   2
loop_
 _symmetry_equiv_pos_site_id
 _symmetry_equiv_pos_as_xyz
  1  'x, y, z'
loop_
 _atom_site_type_symbol
 _atom_site_label
 _atom_site_symmetry_multiplicity
 _atom_site_fract_x
 _atom_site_fract_y
 _atom_site_fract_z
 _atom_site_occupancy
  C  C0  1  0.49360700  0.28881002  0.49613654  1
  C  C1  1  0.99366904  0.21118140  0.00387942  1
  C  C2  1  0.50634468  0.78882613  0.50368086  1
  C  C3  1  0.00628096  0.71118000  0.99629855  1
  N  N4  1  0.59232091  0.23876677  0.59075031  1
  N  N5  1  0.39850005  0.23806246  0.39876901  1
  N  N6  1  0.09241228  0.26122631  0.90929906  1
  N  N7  1  0.89854412  0.26192304  0.10123524  1
  N  N8  1  0.60106583  0.73805710  0.60147418  1
  N  N9  1  0.40801339  0.73880109  0.40872642  1
  N  N10  1  0.10102160  0.76194842  0.89852600  1
  N  N11  1  0.90792048  0.76119897  0.09122911  1
  H  H12  1  0.49000099  0.38058153  0.49893217  1
  H  H13  1  0.66193503  0.28660348  0.66136447  1
  H  H14  1  0.60306465  0.15332046  0.59869820  1
  H  H15  1  0.32572565  0.28592412  0.33100357  1
  H  H16  1  0.39350250  0.15270553  0.38545647  1
  H  H17  1  0.99005275  0.11940955  0.00106425  1
  H  H18  1  0.16204594  0.21339047  0.83870338  1
  H  H19  1  0.10318553  0.34667268  0.90138726  1
  H  H20  1  0.82574950  0.21406134  0.16897367  1
  H  H21  1  0.89355458  0.34728128  0.11456072  1
  H  H22  1  0.50994349  0.88059850  0.50081585  1
  H  H23  1  0.67226553  0.78590034  0.67079192  1
  H  H24  1  0.60920863  0.65258894  0.61176681  1
  H  H25  1  0.34004445  0.78665728  0.33641627  1
  H  H26  1  0.39435703  0.65346682  0.40383309  1
  H  H27  1  0.00989081  0.61940641  0.99915897  1
  H  H28  1  0.17223558  0.71412157  0.82922582  1
  H  H29  1  0.10915221  0.84742842  0.88824328  1
  H  H30  1  0.83993116  0.71333081  0.16351578  1
  H  H31  1  0.89423515  0.84652628  0.09611208  1
  Mg  Mg32  1  0.50007819  0.99997517  0.99909383  1
  Mg  Mg33  1  0.00008364  0.50004823  0.50092886  1
  Sn  Sn34  1  0.00146386  0.00007131  0.49841368  1
  Sn  Sn35  1  0.50146189  0.49995262  0.00160042  1
  I  I36  1  0.49779052  0.24022255  0.99477876  1
  I  I37  1  0.21747044  0.98752896  0.20030612  1
  I  I38  1  0.70204151  0.01465149  0.28052217  1
  I  I39  1  0.99775192  0.25979466  0.50526639  1
  I  I40  1  0.29772979  0.01187899  0.71626841  1
  I  I41  1  0.78160284  0.98599797  0.79584882  1
  I  I42  1  0.50195869  0.75977809  0.00448373  1
  I  I43  1  0.71745586  0.51246488  0.29971152  1
  I  I44  1  0.20202732  0.48535893  0.21947946  1
  I  I45  1  0.00199553  0.74023907  0.49547160  1
  I  I46  1  0.28160579  0.51402352  0.70415801  1
  I  I47  1  0.79772006  0.48811902  0.78374423  1
