# generated using pymatgen
data_MgCdH10C2(I3N2)2
_symmetry_space_group_name_H-M   'P 1'
_cell_length_a   8.45651487
_cell_length_b   11.62871101
_cell_length_c   8.44833686
_cell_angle_alpha   89.98504572
_cell_angle_beta   90.00011009
_cell_angle_gamma   89.99947266
_symmetry_Int_Tables_number   1
_chemical_formula_structural   MgCdH10C2(I3N2)2
_chemical_formula_sum   'Mg2 Cd2 H20 C4 I12 N8'
_cell_volume   830.79562747
_cell_formula_units_Z   2
loop_
 _symmetry_equiv_pos_site_id
 _symmetry_equiv_pos_as_xyz
  1  'x, y, z'
loop_
 _atom_site_type_symbol
 _atom_site_label
 _atom_site_symmetry_multiplicity
 _atom_site_fract_x
 _atom_site_fract_y
 _atom_site_fract_z
 _atom_site_occupancy
  C  C0  1  0.49408772  0.28906775  0.49610277  1
  C  C1  1  0.99414028  0.21092075  0.00391888  1
  C  C2  1  0.50594645  0.78907513  0.50381667  1
  C  C3  1  0.00588984  0.71092482  0.99615898  1
  N  N4  1  0.59390407  0.23812925  0.59173842  1
  N  N5  1  0.39779781  0.23704720  0.39800143  1
  N  N6  1  0.09400263  0.26187156  0.90829783  1
  N  N7  1  0.89785335  0.26294091  0.10199859  1
  N  N8  1  0.60157213  0.73706220  0.60255220  1
  N  N9  1  0.40674900  0.73816560  0.40753495  1
  N  N10  1  0.10151863  0.76295123  0.89745125  1
  N  N11  1  0.90665308  0.76183400  0.09242948  1
  H  H12  1  0.49046998  0.38272417  0.49850378  1
  H  H13  1  0.66379110  0.28731541  0.66348135  1
  H  H14  1  0.60573033  0.15094106  0.59949208  1
  H  H15  1  0.32473112  0.28594727  0.32894466  1
  H  H16  1  0.39148380  0.14981187  0.38571519  1
  H  H17  1  0.99052009  0.11727003  0.00148452  1
  H  H18  1  0.16389486  0.21267974  0.83657323  1
  H  H19  1  0.10584867  0.34905166  0.90058600  1
  H  H20  1  0.82476013  0.21403844  0.17103749  1
  H  H21  1  0.89154171  0.35017385  0.11430651  1
  H  H22  1  0.50955905  0.88274416  0.50138368  1
  H  H23  1  0.67389531  0.78594081  0.67237360  1
  H  H24  1  0.60906027  0.64977560  0.61373192  1
  H  H25  1  0.33757066  0.78735040  0.33508612  1
  H  H26  1  0.39380646  0.65100213  0.40097200  1
  H  H27  1  0.00951069  0.61726032  0.99859514  1
  H  H28  1  0.17386842  0.71407790  0.82763924  1
  H  H29  1  0.10899975  0.85023506  0.88627737  1
  H  H30  1  0.83746791  0.71263590  0.16485536  1
  H  H31  1  0.89368743  0.84898877  0.09898123  1
  Mg  Mg32  1  0.49936600  0.99995114  0.99844121  1
  Mg  Mg33  1  0.99937407  0.50007766  0.50159005  1
  Cd  Cd34  1  0.00098894  0.00006572  0.49817051  1
  Cd  Cd35  1  0.50098681  0.49996044  0.00185494  1
  I  I36  1  0.49790379  0.24966942  0.99554169  1
  I  I37  1  0.21838823  0.98756935  0.20724530  1
  I  I38  1  0.70928043  0.01291041  0.27887267  1
  I  I39  1  0.99785579  0.25034817  0.50450446  1
  I  I40  1  0.29138098  0.01230237  0.71723009  1
  I  I41  1  0.78062540  0.98722145  0.78868837  1
  I  I42  1  0.50193096  0.75039467  0.00414121  1
  I  I43  1  0.71838226  0.51242696  0.29276727  1
  I  I44  1  0.20927132  0.48709897  0.22112765  1
  I  I45  1  0.00197805  0.74962469  0.49580991  1
  I  I46  1  0.28062554  0.51279198  0.71131937  1
  I  I47  1  0.79136803  0.48769461  0.78277817  1
