# generated using pymatgen
data_MgH10PdC2(I3N2)2
_symmetry_space_group_name_H-M   'P 1'
_cell_length_a   8.28385107
_cell_length_b   11.42014075
_cell_length_c   8.68559350
_cell_angle_alpha   90.12466471
_cell_angle_beta   89.99759202
_cell_angle_gamma   90.00356141
_symmetry_Int_Tables_number   1
_chemical_formula_structural   MgH10PdC2(I3N2)2
_chemical_formula_sum   'Mg2 H20 Pd2 C4 I12 N8'
_cell_volume   821.67904106
_cell_formula_units_Z   2
loop_
 _symmetry_equiv_pos_site_id
 _symmetry_equiv_pos_as_xyz
  1  'x, y, z'
loop_
 _atom_site_type_symbol
 _atom_site_label
 _atom_site_symmetry_multiplicity
 _atom_site_fract_x
 _atom_site_fract_y
 _atom_site_fract_z
 _atom_site_occupancy
  C  C0  1  0.49778248  0.28807494  0.49731531  1
  C  C1  1  0.99765241  0.21193961  0.00266778  1
  C  C2  1  0.50258025  0.78668144  0.50286858  1
  C  C3  1  0.00262389  0.71332203  0.99717555  1
  N  N4  1  0.59271896  0.23703097  0.59741265  1
  N  N5  1  0.40572432  0.23427346  0.39695961  1
  N  N6  1  0.09261385  0.26298307  0.90256768  1
  N  N7  1  0.90561549  0.26573866  0.10303464  1
  N  N8  1  0.59312682  0.73284862  0.60410490  1
  N  N9  1  0.40809600  0.73570891  0.40201626  1
  N  N10  1  0.09314507  0.76711976  0.89586546  1
  N  N11  1  0.90809533  0.76432184  0.09796727  1
  H  H12  1  0.49497278  0.38348922  0.49753177  1
  H  H13  1  0.66075037  0.28794313  0.66960497  1
  H  H14  1  0.60635856  0.14833198  0.60541652  1
  H  H15  1  0.33523326  0.28333653  0.32505557  1
  H  H16  1  0.39681992  0.14527513  0.38841038  1
  H  H17  1  0.99481141  0.11651903  0.00242068  1
  H  H18  1  0.16064709  0.21208018  0.83040052  1
  H  H19  1  0.10632336  0.35166899  0.89464867  1
  H  H20  1  0.83512951  0.21667447  0.17496998  1
  H  H21  1  0.89679096  0.35474069  0.11164967  1
  H  H22  1  0.50637988  0.88208470  0.50246642  1
  H  H23  1  0.66353283  0.78187115  0.67635641  1
  H  H24  1  0.60089718  0.64390950  0.61341642  1
  H  H25  1  0.34104551  0.78663529  0.32939423  1
  H  H26  1  0.39395509  0.64708504  0.39351254  1
  H  H27  1  0.00649291  0.61790640  0.99770387  1
  H  H28  1  0.16359524  0.71807651  0.82369460  1
  H  H29  1  0.10088873  0.85604829  0.88646411  1
  H  H30  1  0.84108678  0.71340913  0.17066014  1
  H  H31  1  0.89393856  0.85294269  0.10638594  1
  Mg  Mg32  1  0.50194401  0.99932168  0.00130415  1
  Mg  Mg33  1  0.00111556  0.50072630  0.49970550  1
  Pd  Pd34  1  0.00071795  0.00987530  0.49828968  1
  Pd  Pd35  1  0.50079023  0.49011662  0.00161875  1
  I  I36  1  0.49953404  0.25590449  0.99712808  1
  I  I37  1  0.24590959  0.98429605  0.18870154  1
  I  I38  1  0.74154482  0.01425660  0.30744219  1
  I  I39  1  0.99962373  0.24408900  0.50259324  1
  I  I40  1  0.25869966  0.01407346  0.68804420  1
  I  I41  1  0.75252535  0.98503840  0.80705715  1
  I  I42  1  0.49929122  0.72276441  0.00285711  1
  I  I43  1  0.74601306  0.51572851  0.31115285  1
  I  I44  1  0.24181181  0.48570547  0.19239275  1
  I  I45  1  0.99933784  0.77721843  0.49709910  1
  I  I46  1  0.25269724  0.51491966  0.69276701  1
  I  I47  1  0.75903844  0.48595724  0.81183238  1
