# generated using pymatgen
data_SrMgH10C2(I3N2)2
_symmetry_space_group_name_H-M   'P 1'
_cell_length_a   8.61064218
_cell_length_b   11.99444785
_cell_length_c   8.60374289
_cell_angle_alpha   89.95829124
_cell_angle_beta   89.99997904
_cell_angle_gamma   90.00013622
_symmetry_Int_Tables_number   1
_chemical_formula_structural   SrMgH10C2(I3N2)2
_chemical_formula_sum   'Sr2 Mg2 H20 C4 I12 N8'
_cell_volume   888.59345764
_cell_formula_units_Z   2
loop_
 _symmetry_equiv_pos_site_id
 _symmetry_equiv_pos_as_xyz
  1  'x, y, z'
loop_
 _atom_site_type_symbol
 _atom_site_label
 _atom_site_symmetry_multiplicity
 _atom_site_fract_x
 _atom_site_fract_y
 _atom_site_fract_z
 _atom_site_occupancy
  C  C0  1  0.49328970  0.28878977  0.49606127  1
  C  C1  1  0.99335381  0.21119716  0.00395519  1
  C  C2  1  0.50680490  0.78881350  0.50366474  1
  C  C3  1  0.00673101  0.71119544  0.99631522  1
  N  N4  1  0.59148862  0.23922057  0.58999195  1
  N  N5  1  0.39865182  0.23872811  0.39918045  1
  N  N6  1  0.09157872  0.26077001  0.91006096  1
  N  N7  1  0.89869282  0.26125657  0.10082161  1
  N  N8  1  0.60098219  0.73870287  0.60100000  1
  N  N9  1  0.40902091  0.73928603  0.40930864  1
  N  N10  1  0.10092870  0.76131032  0.89900971  1
  N  N11  1  0.90891312  0.76071671  0.09064771  1
  H  H12  1  0.48967925  0.37961901  0.49903273  1
  H  H13  1  0.66123678  0.28654641  0.65959562  1
  H  H14  1  0.60085421  0.15464043  0.59921328  1
  H  H15  1  0.32566279  0.28615238  0.33276281  1
  H  H16  1  0.39479889  0.15429773  0.38449264  1
  H  H17  1  0.98973594  0.12036835  0.00097004  1
  H  H18  1  0.16135369  0.21344641  0.84047859  1
  H  H19  1  0.10097450  0.34535063  0.90087747  1
  H  H20  1  0.82568208  0.21383055  0.16721395  1
  H  H21  1  0.89484710  0.34568570  0.11551796  1
  H  H22  1  0.51037220  0.87964410  0.50065716  1
  H  H23  1  0.67098925  0.78611948  0.67045643  1
  H  H24  1  0.61052393  0.65408479  0.61004777  1
  H  H25  1  0.34208819  0.78662619  0.33689919  1
  H  H26  1  0.39405575  0.65490624  0.40579327  1
  H  H27  1  0.01030092  0.62036435  0.99932017  1
  H  H28  1  0.17095647  0.71389748  0.82956627  1
  H  H29  1  0.11046869  0.84592922  0.88996658  1
  H  H30  1  0.84195438  0.71336971  0.16302344  1
  H  H31  1  0.89392108  0.84509415  0.09414664  1
  Mg  Mg32  1  0.49890114  0.99997283  0.99875499  1
  Mg  Mg33  1  0.99890084  0.50004285  0.50126614  1
  Sr  Sr34  1  0.00063255  0.00004877  0.49854037  1
  Sr  Sr35  1  0.50062515  0.49996766  0.00147095  1
  I  I36  1  0.49825667  0.23644687  0.99421788  1
  I  I37  1  0.21749155  0.98899630  0.19377384  1
  I  I38  1  0.69578335  0.01444512  0.28061930  1
  I  I39  1  0.99822457  0.26356862  0.50581596  1
  I  I40  1  0.30459784  0.00986114  0.71632402  1
  I  I41  1  0.78160101  0.98665143  0.80235961  1
  I  I42  1  0.50231846  0.76355121  0.00522154  1
  I  I43  1  0.71747542  0.51100163  0.30624271  1
  I  I44  1  0.19576998  0.48556757  0.21937823  1
  I  I45  1  0.00235358  0.73646366  0.49473419  1
  I  I46  1  0.28160434  0.51337748  0.69764543  1
  I  I47  1  0.80459048  0.49013950  0.78369012  1
