# generated using pymatgen
data_MgGeH10C2(I3N2)2
_symmetry_space_group_name_H-M   'P 1'
_cell_length_a   8.46757973
_cell_length_b   11.62531255
_cell_length_c   8.45985349
_cell_angle_alpha   90.01828777
_cell_angle_beta   89.99924566
_cell_angle_gamma   90.00046265
_symmetry_Int_Tables_number   1
_chemical_formula_structural   MgGeH10C2(I3N2)2
_chemical_formula_sum   'Mg2 Ge2 H20 C4 I12 N8'
_cell_volume   832.77322256
_cell_formula_units_Z   2
loop_
 _symmetry_equiv_pos_site_id
 _symmetry_equiv_pos_as_xyz
  1  'x, y, z'
loop_
 _atom_site_type_symbol
 _atom_site_label
 _atom_site_symmetry_multiplicity
 _atom_site_fract_x
 _atom_site_fract_y
 _atom_site_fract_z
 _atom_site_occupancy
  C  C0  1  0.49399953  0.28904229  0.49627875  1
  C  C1  1  0.99405338  0.21094981  0.00373485  1
  C  C2  1  0.50567644  0.78905203  0.50373954  1
  C  C3  1  0.00560815  0.71094963  0.99624876  1
  N  N4  1  0.59337217  0.23803015  0.59204394  1
  N  N5  1  0.39821445  0.23701111  0.39791167  1
  N  N6  1  0.09345580  0.26196375  0.90800011  1
  N  N7  1  0.89825398  0.26298032  0.10209337  1
  N  N8  1  0.60136326  0.73702240  0.60207833  1
  N  N9  1  0.40620332  0.73804908  0.40795169  1
  N  N10  1  0.10130882  0.76297996  0.89792234  1
  N  N11  1  0.90611106  0.76195265  0.09201503  1
  H  H12  1  0.49034610  0.38277227  0.49885668  1
  H  H13  1  0.66299565  0.28724965  0.66386175  1
  H  H14  1  0.60584739  0.15082441  0.59935774  1
  H  H15  1  0.32552170  0.28597496  0.32869246  1
  H  H16  1  0.39185888  0.14976342  0.38539747  1
  H  H17  1  0.99038571  0.11722140  0.00113887  1
  H  H18  1  0.16309744  0.21274376  0.83619863  1
  H  H19  1  0.10596105  0.34916730  0.90071801  1
  H  H20  1  0.82553674  0.21401601  0.17128738  1
  H  H21  1  0.89190838  0.35022771  0.11461869  1
  H  H22  1  0.50949538  0.88278210  0.50116487  1
  H  H23  1  0.67397063  0.78598372  0.67143755  1
  H  H24  1  0.60865296  0.64974913  0.61365007  1
  H  H25  1  0.33717644  0.78725052  0.33558117  1
  H  H26  1  0.39329793  0.65085692  0.40107401  1
  H  H27  1  0.00943531  0.61722059  0.99882770  1
  H  H28  1  0.17392823  0.71402654  0.82857285  1
  H  H29  1  0.10859022  0.85025770  0.88635264  1
  H  H30  1  0.83707425  0.71274436  0.16437795  1
  H  H31  1  0.89318639  0.84913972  0.09888349  1
  Mg  Mg32  1  0.50287741  0.99992740  0.00033198  1
  Mg  Mg33  1  0.00290604  0.50010961  0.49970196  1
  Ge  Ge34  1  0.00427381  0.00019469  0.49869668  1
  Ge  Ge35  1  0.50428299  0.49984913  0.00132930  1
  I  I36  1  0.49721657  0.24569891  0.99609547  1
  I  I37  1  0.21685181  0.98780500  0.21240064  1
  I  I38  1  0.71402972  0.01207015  0.27971329  1
  I  I39  1  0.99717373  0.25431544  0.50394033  1
  I  I40  1  0.28496827  0.01209324  0.71553357  1
  I  I41  1  0.78089047  0.98825756  0.78324142  1
  I  I42  1  0.50095771  0.75424258  0.00321633  1
  I  I43  1  0.71683821  0.51218823  0.28759542  1
  I  I44  1  0.21401681  0.48793405  0.22028199  1
  I  I45  1  0.00100146  0.74577176  0.49673746  1
  I  I46  1  0.28088766  0.51175062  0.71675963  1
  I  I47  1  0.78495955  0.48789924  0.78446094  1
