# generated using pymatgen
data_MgGaH10C2(I3N2)2
_symmetry_space_group_name_H-M   'P 1'
_cell_length_a   8.93625798
_cell_length_b   11.04478012
_cell_length_c   8.84191542
_cell_angle_alpha   89.42091742
_cell_angle_beta   90.09056487
_cell_angle_gamma   91.12464486
_symmetry_Int_Tables_number   1
_chemical_formula_structural   MgGaH10C2(I3N2)2
_chemical_formula_sum   'Mg2 Ga2 H20 C4 I12 N8'
_cell_volume   872.47473966
_cell_formula_units_Z   2
loop_
 _symmetry_equiv_pos_site_id
 _symmetry_equiv_pos_as_xyz
  1  'x, y, z'
loop_
 _atom_site_type_symbol
 _atom_site_label
 _atom_site_symmetry_multiplicity
 _atom_site_fract_x
 _atom_site_fract_y
 _atom_site_fract_z
 _atom_site_occupancy
  C  C0  1  0.49873030  0.29310298  0.49257369  1
  C  C1  1  0.00732887  0.22554859  0.02302605  1
  C  C2  1  0.49345108  0.77656448  0.50986978  1
  C  C3  1  0.99659488  0.70651701  0.99834342  1
  N  N4  1  0.59712239  0.23610244  0.57573770  1
  N  N5  1  0.40369028  0.24201355  0.39825838  1
  N  N6  1  0.08973563  0.27590079  0.91573743  1
  N  N7  1  0.87988414  0.26680275  0.07198250  1
  N  N8  1  0.60879061  0.72579743  0.57436847  1
  N  N9  1  0.41954649  0.73239617  0.39367755  1
  N  N10  1  0.09890773  0.75882028  0.91190247  1
  N  N11  1  0.90743995  0.76202962  0.09144999  1
  H  H12  1  0.49442940  0.39120843  0.50391512  1
  H  H13  1  0.66643390  0.28569401  0.64510324  1
  H  H14  1  0.61371109  0.14520066  0.56764357  1
  H  H15  1  0.33112890  0.29581198  0.33952286  1
  H  H16  1  0.39636595  0.15067310  0.38160792  1
  H  H17  1  0.04984432  0.14348380  0.07696855  1
  H  H18  1  0.19228723  0.24135295  0.89207163  1
  H  H19  1  0.06039896  0.35355259  0.85997140  1
  H  H20  1  0.82040459  0.21798886  0.15115720  1
  H  H21  1  0.83152969  0.34165583  0.02576273  1
  H  H22  1  0.45361415  0.86077785  0.55784961  1
  H  H23  1  0.65617619  0.76425315  0.66770945  1
  H  H24  1  0.65524488  0.64871132  0.53313138  1
  H  H25  1  0.33198142  0.77926737  0.34898673  1
  H  H26  1  0.44544643  0.65210772  0.34513749  1
  H  H27  1  0.98344108  0.60840037  0.99090379  1
  H  H28  1  0.16271591  0.70587281  0.84362076  1
  H  H29  1  0.12587202  0.84890248  0.91825478  1
  H  H30  1  0.83399220  0.71088235  0.15553220  1
  H  H31  1  0.90916010  0.85352522  0.10652579  1
  Mg  Mg32  1  0.48524306  0.99522935  0.08682838  1
  Mg  Mg33  1  0.00147737  0.48995335  0.50853008  1
  Ga  Ga34  1  0.02004530  0.00488544  0.60683872  1
  Ga  Ga35  1  0.45955555  0.50177298  0.00795947  1
  I  I36  1  0.49973970  0.22905357  0.97874443  1
  I  I37  1  0.21160255  0.97535135  0.20969294  1
  I  I38  1  0.69792633  0.00256059  0.30111343  1
  I  I39  1  0.00071667  0.21505409  0.46123240  1
  I  I40  1  0.28639372  0.02420052  0.71626920  1
  I  I41  1  0.80961501  0.00478703  0.80412390  1
  I  I42  1  0.51484851  0.77205439  0.96211995  1
  I  I43  1  0.74491611  0.51018170  0.29924937  1
  I  I44  1  0.19400358  0.49315162  0.24029515  1
  I  I45  1  0.99685797  0.78619742  0.49425697  1
  I  I46  1  0.26120021  0.51348461  0.69739972  1
  I  I47  1  0.80047694  0.48122602  0.75714701  1
