# generated using pymatgen
data_MgZnH10C2(I3N2)2
_symmetry_space_group_name_H-M   'P 1'
_cell_length_a   7.27758854
_cell_length_b   13.87705907
_cell_length_c   8.95088469
_cell_angle_alpha   89.13506370
_cell_angle_beta   89.99964012
_cell_angle_gamma   90.00595103
_symmetry_Int_Tables_number   1
_chemical_formula_structural   MgZnH10C2(I3N2)2
_chemical_formula_sum   'Mg2 Zn2 H20 C4 I12 N8'
_cell_volume   903.86050005
_cell_formula_units_Z   2
loop_
 _symmetry_equiv_pos_site_id
 _symmetry_equiv_pos_as_xyz
  1  'x, y, z'
loop_
 _atom_site_type_symbol
 _atom_site_label
 _atom_site_symmetry_multiplicity
 _atom_site_fract_x
 _atom_site_fract_y
 _atom_site_fract_z
 _atom_site_occupancy
  C  C0  1  0.45262063  0.30832587  0.45785872  1
  C  C1  1  0.95262461  0.19168042  0.04213770  1
  C  C2  1  0.51520396  0.80012676  0.50302566  1
  C  C3  1  0.01537804  0.69984742  0.99697809  1
  N  N4  1  0.51106162  0.29501202  0.59536008  1
  N  N5  1  0.47111926  0.24551517  0.35101660  1
  N  N6  1  0.01114483  0.20509589  0.90468493  1
  N  N7  1  0.97085959  0.25447171  0.14904030  1
  N  N8  1  0.56669661  0.73342837  0.59920950  1
  N  N9  1  0.50668147  0.78767004  0.35796056  1
  N  N10  1  0.06666388  0.76659845  0.90076700  1
  N  N11  1  0.00674912  0.71231815  0.14201890  1
  H  H12  1  0.38650026  0.37697820  0.43061282  1
  H  H13  1  0.48650298  0.34572373  0.67406300  1
  H  H14  1  0.57857210  0.23433723  0.62987230  1
  H  H15  1  0.42841615  0.26190994  0.24456357  1
  H  H16  1  0.53400333  0.17979363  0.36739727  1
  H  H17  1  0.88667907  0.12295926  0.06929579  1
  H  H18  1  0.98682900  0.15439576  0.82590680  1
  H  H19  1  0.07848553  0.26585361  0.87026709  1
  H  H20  1  0.92813041  0.23800224  0.25546080  1
  H  H21  1  0.03361628  0.32024124  0.13274111  1
  H  H22  1  0.47899916  0.87124486  0.54511969  1
  H  H23  1  0.56955507  0.74648574  0.71196988  1
  H  H24  1  0.60670148  0.66662748  0.56351399  1
  H  H25  1  0.46143203  0.84248637  0.28956087  1
  H  H26  1  0.53486754  0.72300382  0.30994792  1
  H  H27  1  0.97944826  0.62868826  0.95489346  1
  H  H28  1  0.06959809  0.75352118  0.78801225  1
  H  H29  1  0.10642013  0.83344137  0.93644785  1
  H  H30  1  0.96165586  0.65746739  0.21042980  1
  H  H31  1  0.03469117  0.77702576  0.19001956  1
  Mg  Mg32  1  0.42288246  0.04037714  0.89566554  1
  Mg  Mg33  1  0.92291345  0.45958476  0.60434045  1
  Zn  Zn34  1  0.94079873  0.95690320  0.56083675  1
  Zn  Zn35  1  0.44088075  0.54306632  0.93914178  1
  I  I36  1  0.48639339  0.22448023  0.96331696  1
  I  I37  1  0.23739239  0.96420004  0.12765033  1
  I  I38  1  0.74750801  0.02884256  0.34678678  1
  I  I39  1  0.98630185  0.27547506  0.53668942  1
  I  I40  1  0.26987368  0.04050257  0.61237268  1
  I  I41  1  0.77369928  0.96909517  0.83123335  1
  I  I42  1  0.53235734  0.71990839  0.98655852  1
  I  I43  1  0.73748514  0.53578880  0.37236637  1
  I  I44  1  0.24757023  0.47109478  0.15317468  1
  I  I45  1  0.03231716  0.78007072  0.51343252  1
  I  I46  1  0.27377252  0.53088510  0.66873345  1
  I  I47  1  0.76996548  0.45951081  0.88765127  1
