# generated using pymatgen
data_MgSnH12C2(I3N)2
_symmetry_space_group_name_H-M   'P 1'
_cell_length_a   8.37491186
_cell_length_b   12.12869977
_cell_length_c   8.28995440
_cell_angle_alpha   89.16461829
_cell_angle_beta   90.00950883
_cell_angle_gamma   90.01131282
_symmetry_Int_Tables_number   1
_chemical_formula_structural   MgSnH12C2(I3N)2
_chemical_formula_sum   'Mg2 Sn2 H24 C4 I12 N4'
_cell_volume   841.97744045
_cell_formula_units_Z   2
loop_
 _symmetry_equiv_pos_site_id
 _symmetry_equiv_pos_as_xyz
  1  'x, y, z'
loop_
 _atom_site_type_symbol
 _atom_site_label
 _atom_site_symmetry_multiplicity
 _atom_site_fract_x
 _atom_site_fract_y
 _atom_site_fract_z
 _atom_site_occupancy
  C  C0  1  0.39551298  0.25000440  0.41439365  1
  C  C1  1  0.89671824  0.25017605  0.08673799  1
  C  C2  1  0.60448430  0.74999880  0.58562027  1
  C  C3  1  0.10328892  0.74982478  0.91327581  1
  N  N4  1  0.53717025  0.24962683  0.52152045  1
  N  N5  1  0.03768977  0.25043016  0.97875212  1
  N  N6  1  0.46282563  0.75037663  0.47849517  1
  N  N7  1  0.96231887  0.74956711  0.02126371  1
  H  H8  1  0.43598366  0.25034595  0.28881845  1
  H  H9  1  0.32523887  0.17574034  0.43933890  1
  H  H10  1  0.32477899  0.32376234  0.43783524  1
  H  H11  1  0.60697854  0.18057989  0.49905577  1
  H  H12  1  0.60696823  0.31917022  0.49855050  1
  H  H13  1  0.50644169  0.24852846  0.64363458  1
  H  H14  1  0.93803785  0.24989452  0.21204026  1
  H  H15  1  0.82568760  0.17644687  0.06387387  1
  H  H16  1  0.82642934  0.32448912  0.06218975  1
  H  H17  1  0.10747962  0.18083375  0.00139667  1
  H  H18  1  0.10774286  0.31942711  0.00075166  1
  H  H19  1  0.00623955  0.25148574  0.85681166  1
  H  H20  1  0.56401526  0.74965885  0.71119592  1
  H  H21  1  0.67521702  0.67624097  0.56217869  1
  H  H22  1  0.67475929  0.82426287  0.56067328  1
  H  H23  1  0.39301769  0.81942378  0.50096049  1
  H  H24  1  0.39302823  0.68083329  0.50146544  1
  H  H25  1  0.49355348  0.75147539  0.35638065  1
  H  H26  1  0.06196787  0.75010861  0.78797399  1
  H  H27  1  0.17431909  0.82355387  0.93614286  1
  H  H28  1  0.17357881  0.67551168  0.93781995  1
  H  H29  1  0.89252611  0.81916247  0.99862215  1
  H  H30  1  0.89226785  0.68056931  0.99926395  1
  H  H31  1  0.99377063  0.74851106  0.14320393  1
  Mg  Mg32  1  0.50000033  0.00000784  0.00000689  1
  Mg  Mg33  1  0.99998984  0.50000417  0.49998889  1
  Sn  Sn34  1  0.99999940  0.00000507  0.50001067  1
  Sn  Sn35  1  0.49999972  0.50000911  0.99998982  1
  I  I36  1  0.47536943  0.24217558  0.94520659  1
  I  I37  1  0.19446285  0.00927607  0.17183111  1
  I  I38  1  0.67242363  0.01462008  0.30882145  1
  I  I39  1  0.97471527  0.25784204  0.55538027  1
  I  I40  1  0.32758222  0.98538702  0.69119386  1
  I  I41  1  0.80554458  0.99072577  0.82818717  1
  I  I42  1  0.52463740  0.75783540  0.05480879  1
  I  I43  1  0.69448605  0.49057241  0.32807692  1
  I  I44  1  0.17256875  0.48551249  0.19123922  1
  I  I45  1  0.02527982  0.74216326  0.44463375  1
  I  I46  1  0.30549936  0.50942987  0.67192115  1
  I  I47  1  0.82742799  0.51449087  0.80876223  1
