# generated using pymatgen
data_CaMgH10C2(I3N2)2
_symmetry_space_group_name_H-M   'P 1'
_cell_length_a   8.53265396
_cell_length_b   11.77602660
_cell_length_c   8.52603914
_cell_angle_alpha   89.95100063
_cell_angle_beta   89.99922364
_cell_angle_gamma   90.00069036
_symmetry_Int_Tables_number   1
_chemical_formula_structural   CaMgH10C2(I3N2)2
_chemical_formula_sum   'Ca2 Mg2 H20 C4 I12 N8'
_cell_volume   856.70257905
_cell_formula_units_Z   2
loop_
 _symmetry_equiv_pos_site_id
 _symmetry_equiv_pos_as_xyz
  1  'x, y, z'
loop_
 _atom_site_type_symbol
 _atom_site_label
 _atom_site_symmetry_multiplicity
 _atom_site_fract_x
 _atom_site_fract_y
 _atom_site_fract_z
 _atom_site_occupancy
  C  C0  1  0.49383614  0.28888555  0.49616667  1
  C  C1  1  0.99389686  0.21110457  0.00384680  1
  C  C2  1  0.50622067  0.78889170  0.50367594  1
  C  C3  1  0.00616398  0.71111327  0.99630375  1
  N  N4  1  0.59259653  0.23848802  0.59125525  1
  N  N5  1  0.39868427  0.23767572  0.39842389  1
  N  N6  1  0.09268221  0.26150413  0.90879493  1
  N  N7  1  0.89873391  0.26231133  0.10157259  1
  N  N8  1  0.60139780  0.73768545  0.60146588  1
  N  N9  1  0.40750059  0.73849327  0.40860503  1
  N  N10  1  0.10134831  0.76233028  0.89854573  1
  N  N11  1  0.90741406  0.76149990  0.09135268  1
  H  H12  1  0.49018504  0.38141800  0.49879701  1
  H  H13  1  0.66210968  0.28691083  0.66218594  1
  H  H14  1  0.60374553  0.15238227  0.59950741  1
  H  H15  1  0.32591211  0.28598458  0.33035152  1
  H  H16  1  0.39309416  0.15157749  0.38522358  1
  H  H17  1  0.99023303  0.11857824  0.00119897  1
  H  H18  1  0.16220548  0.21308307  0.83788583  1
  H  H19  1  0.10386240  0.34761057  0.90057401  1
  H  H20  1  0.82594491  0.21400203  0.16962080  1
  H  H21  1  0.89315265  0.34841070  0.11478737  1
  H  H22  1  0.50976724  0.88143725  0.50094296  1
  H  H23  1  0.67284381  0.78599917  0.67080101  1
  H  H24  1  0.60968795  0.65150741  0.61215218  1
  H  H25  1  0.33919083  0.78692834  0.33640486  1
  H  H26  1  0.39385072  0.65247277  0.40308547  1
  H  H27  1  0.00971984  0.61857095  0.99903437  1
  H  H28  1  0.17281176  0.71402905  0.82922397  1
  H  H29  1  0.10963090  0.84851046  0.88786425  1
  H  H30  1  0.83909294  0.71305364  0.16351989  1
  H  H31  1  0.89373538  0.84752027  0.09686244  1
  Mg  Mg32  1  0.49881967  0.99998963  0.99849309  1
  Mg  Mg33  1  0.99882110  0.50002661  0.50153257  1
  Ca  Ca34  1  0.00055657  0.00002687  0.49840591  1
  Ca  Ca35  1  0.50055297  0.49998885  0.00160509  1
  I  I36  1  0.49829371  0.24100387  0.99551219  1
  I  I37  1  0.21824216  0.98877474  0.20425292  1
  I  I38  1  0.70655494  0.01266322  0.27948867  1
  I  I39  1  0.99825522  0.25901028  0.50452610  1
  I  I40  1  0.29405116  0.01071182  0.71679880  1
  I  I41  1  0.78085619  0.98785282  0.79157916  1
  I  I42  1  0.50202596  0.75901845  0.00400377  1
  I  I43  1  0.71823102  0.51122474  0.29576259  1
  I  I44  1  0.20654582  0.48734871  0.22051195  1
  I  I45  1  0.00206202  0.74099653  0.49595988  1
  I  I46  1  0.28085807  0.51216565  0.70842717  1
  I  I47  1  0.79404108  0.48928991  0.78321192  1
