# generated using pymatgen
data_MgSiH10C2(I3N2)2
_symmetry_space_group_name_H-M   'P 1'
_cell_length_a   8.43000628
_cell_length_b   11.54312904
_cell_length_c   8.42207964
_cell_angle_alpha   90.10522975
_cell_angle_beta   89.99852541
_cell_angle_gamma   89.99919325
_symmetry_Int_Tables_number   1
_chemical_formula_structural   MgSiH10C2(I3N2)2
_chemical_formula_sum   'Mg2 Si2 H20 C4 I12 N8'
_cell_volume   819.53982084
_cell_formula_units_Z   2
loop_
 _symmetry_equiv_pos_site_id
 _symmetry_equiv_pos_as_xyz
  1  'x, y, z'
loop_
 _atom_site_type_symbol
 _atom_site_label
 _atom_site_symmetry_multiplicity
 _atom_site_fract_x
 _atom_site_fract_y
 _atom_site_fract_z
 _atom_site_occupancy
  C  C0  1  0.49373453  0.28941123  0.49638332  1
  C  C1  1  0.99380046  0.21057808  0.00362920  1
  C  C2  1  0.50604888  0.78939847  0.50375692  1
  C  C3  1  0.00598467  0.71060858  0.99621914  1
  N  N4  1  0.59345899  0.23813604  0.59252308  1
  N  N5  1  0.39751103  0.23724254  0.39740320  1
  N  N6  1  0.09355361  0.26185341  0.90752635  1
  N  N7  1  0.89755492  0.26274448  0.10260472  1
  N  N8  1  0.60216862  0.73722596  0.60246743  1
  N  N9  1  0.40591297  0.73814684  0.40765120  1
  N  N10  1  0.10211553  0.76278310  0.89753937  1
  N  N11  1  0.90580877  0.76184956  0.09231152  1
  H  H12  1  0.49002427  0.38376176  0.49917996  1
  H  H13  1  0.66297666  0.28798328  0.66484956  1
  H  H14  1  0.60686488  0.15038183  0.59968064  1
  H  H15  1  0.32498744  0.28690260  0.32794205  1
  H  H16  1  0.39033812  0.14939897  0.38466262  1
  H  H17  1  0.99007588  0.11622637  0.00081444  1
  H  H18  1  0.16310486  0.21200821  0.83521995  1
  H  H19  1  0.10699308  0.34960949  0.90040821  1
  H  H20  1  0.82499883  0.21308478  0.17203024  1
  H  H21  1  0.89038760  0.35058714  0.11535173  1
  H  H22  1  0.51016416  0.88373666  0.50103974  1
  H  H23  1  0.67527983  0.78688646  0.67160730  1
  H  H24  1  0.60937979  0.64938643  0.61492857  1
  H  H25  1  0.33659047  0.78794872  0.33538947  1
  H  H26  1  0.39283077  0.65039336  0.39994674  1
  H  H27  1  0.01010401  0.61626656  0.99893753  1
  H  H28  1  0.17524221  0.71312757  0.82839026  1
  H  H29  1  0.10932198  0.85062505  0.88507746  1
  H  H30  1  0.83648642  0.71204704  0.16455822  1
  H  H31  1  0.89271130  0.84960575  0.10001077  1
  Mg  Mg32  1  0.50465401  0.99972889  0.00127668  1
  Mg  Mg33  1  0.00469368  0.50033993  0.49876498  1
  Si  Si34  1  0.00648708  0.00060319  0.49909445  1
  Si  Si35  1  0.50651181  0.49948310  0.00094455  1
  I  I36  1  0.49675079  0.24907560  0.99619937  1
  I  I37  1  0.21476430  0.98838756  0.21629280  1
  I  I38  1  0.71642323  0.01138670  0.28012367  1
  I  I39  1  0.99670370  0.25092116  0.50383993  1
  I  I40  1  0.28067758  0.01172921  0.71336928  1
  I  I41  1  0.78133883  0.98900606  0.78023601  1
  I  I42  1  0.50065734  0.75111596  0.00310008  1
  I  I43  1  0.71473801  0.51159812  0.28369444  1
  I  I44  1  0.21640217  0.48861382  0.21988116  1
  I  I45  1  0.00070016  0.74888152  0.49685355  1
  I  I46  1  0.28133204  0.51099556  0.71976681  1
  I  I47  1  0.78066908  0.48825026  0.78662608  1
