# generated using pymatgen
data_AlTlH10C2(I3N2)2
_symmetry_space_group_name_H-M   'P 1'
_cell_length_a   8.61043797
_cell_length_b   11.94057775
_cell_length_c   8.60002431
_cell_angle_alpha   89.83841325
_cell_angle_beta   89.99830055
_cell_angle_gamma   90.00258849
_symmetry_Int_Tables_number   1
_chemical_formula_structural   AlTlH10C2(I3N2)2
_chemical_formula_sum   'Al2 Tl2 H20 C4 I12 N8'
_cell_volume   884.19597716
_cell_formula_units_Z   2
loop_
 _symmetry_equiv_pos_site_id
 _symmetry_equiv_pos_as_xyz
  1  'x, y, z'
loop_
 _atom_site_type_symbol
 _atom_site_label
 _atom_site_symmetry_multiplicity
 _atom_site_fract_x
 _atom_site_fract_y
 _atom_site_fract_z
 _atom_site_occupancy
  C  C0  1  0.49379481  0.28865701  0.49586171  1
  C  C1  1  0.99384687  0.21134443  0.00416617  1
  C  C2  1  0.50657208  0.78871657  0.50344052  1
  C  C3  1  0.00650763  0.71129263  0.99654217  1
  N  N4  1  0.59236294  0.23867538  0.58947851  1
  N  N5  1  0.39853571  0.23834810  0.39967672  1
  N  N6  1  0.09244186  0.26132489  0.91057878  1
  N  N7  1  0.89860135  0.26164434  0.10030513  1
  N  N8  1  0.60027820  0.73836067  0.60148520  1
  N  N9  1  0.40932362  0.73878323  0.40879423  1
  N  N10  1  0.10022969  0.76164809  0.89851779  1
  N  N11  1  0.90925010  0.76122283  0.09113262  1
  H  H12  1  0.49044675  0.37988876  0.49850312  1
  H  H13  1  0.66263550  0.28611282  0.65857844  1
  H  H14  1  0.60140935  0.15367396  0.59938639  1
  H  H15  1  0.32515074  0.28602148  0.33348369  1
  H  H16  1  0.39463744  0.15351216  0.38494559  1
  H  H17  1  0.99050041  0.12010100  0.00150143  1
  H  H18  1  0.16273970  0.21388731  0.84149654  1
  H  H19  1  0.10151937  0.34631661  0.90069488  1
  H  H20  1  0.82516055  0.21395122  0.16650720  1
  H  H21  1  0.89468603  0.34647039  0.11506730  1
  H  H22  1  0.51014609  0.87994057  0.50006866  1
  H  H23  1  0.66987164  0.78600319  0.67129668  1
  H  H24  1  0.61008868  0.65334382  0.61090334  1
  H  H25  1  0.34277990  0.78626459  0.33572654  1
  H  H26  1  0.39396037  0.65399406  0.40583174  1
  H  H27  1  0.01009279  0.62006410  0.99992512  1
  H  H28  1  0.16984002  0.71402373  0.82873416  1
  H  H29  1  0.11002872  0.84666889  0.88910069  1
  H  H30  1  0.84264616  0.71370817  0.16422076  1
  H  H31  1  0.89383491  0.84599333  0.09410177  1
  Al  Al32  1  0.49868462  0.99995613  0.99846870  1
  Al  Al33  1  0.99868508  0.50006062  0.50154669  1
  Tl  Tl34  1  1.00000917  0.00009650  0.49827807  1
  Tl  Tl35  1  0.50000611  0.49992404  0.00173479  1
  I  I36  1  0.49807735  0.22657919  0.99410414  1
  I  I37  1  0.23133712  0.99051989  0.18664459  1
  I  I38  1  0.68804053  0.01229572  0.26688005  1
  I  I39  1  0.99803966  0.27343730  0.50593815  1
  I  I40  1  0.31159405  0.00752149  0.73002735  1
  I  I41  1  0.76775080  0.98965197  0.80974320  1
  I  I42  1  0.50257215  0.77338891  0.00463747  1
  I  I43  1  0.73132234  0.50946905  0.31337211  1
  I  I44  1  0.18802789  0.48770820  0.23311572  1
  I  I45  1  0.00261180  0.72662515  0.49531691  1
  I  I46  1  0.26775199  0.51038029  0.69026099  1
  I  I47  1  0.81158870  0.49249017  0.76998224  1
