# generated using pymatgen
data_AlH10AuC2(I3N2)2
_symmetry_space_group_name_H-M   'P 1'
_cell_length_a   8.84370635
_cell_length_b   10.85319386
_cell_length_c   9.35510345
_cell_angle_alpha   92.58443263
_cell_angle_beta   90.00007252
_cell_angle_gamma   89.99784338
_symmetry_Int_Tables_number   1
_chemical_formula_structural   AlH10AuC2(I3N2)2
_chemical_formula_sum   'Al2 H20 Au2 C4 I12 N8'
_cell_volume   897.01251901
_cell_formula_units_Z   2
loop_
 _symmetry_equiv_pos_site_id
 _symmetry_equiv_pos_as_xyz
  1  'x, y, z'
loop_
 _atom_site_type_symbol
 _atom_site_label
 _atom_site_symmetry_multiplicity
 _atom_site_fract_x
 _atom_site_fract_y
 _atom_site_fract_z
 _atom_site_occupancy
  C  C0  1  0.51815948  0.30280101  0.49531214  1
  C  C1  1  0.01810772  0.19723209  0.00473334  1
  C  C2  1  0.51507127  0.76487732  0.50111048  1
  C  C3  1  0.01508933  0.73509184  0.99884983  1
  N  N4  1  0.58805893  0.25133270  0.60094801  1
  N  N5  1  0.39644220  0.25902895  0.43067931  1
  N  N6  1  0.08799408  0.24869391  0.89908840  1
  N  N7  1  0.89635702  0.24098377  0.06933236  1
  N  N8  1  0.59288341  0.71700353  0.60407678  1
  N  N9  1  0.40471799  0.71014787  0.42857909  1
  N  N10  1  0.09295047  0.78297898  0.89592789  1
  N  N11  1  0.90476439  0.78984089  0.07140823  1
  H  H12  1  0.56677441  0.38765998  0.45633414  1
  H  H13  1  0.68382175  0.29106033  0.64299712  1
  H  H14  1  0.55081805  0.17164914  0.64377352  1
  H  H15  1  0.34760032  0.30663177  0.35080095  1
  H  H16  1  0.34404087  0.18026697  0.46165716  1
  H  H17  1  0.06676147  0.11239730  0.04374676  1
  H  H18  1  0.18379236  0.20899381  0.85707419  1
  H  H19  1  0.05071284  0.32835596  0.85623593  1
  H  H20  1  0.84752755  0.19338602  0.14921917  1
  H  H21  1  0.84392588  0.31972859  0.03833243  1
  H  H22  1  0.54794936  0.85698692  0.47025460  1
  H  H23  1  0.67325020  0.77060644  0.65572153  1
  H  H24  1  0.56758657  0.63376528  0.64678273  1
  H  H25  1  0.34662731  0.75841784  0.35508365  1
  H  H26  1  0.36039989  0.62749125  0.45532297  1
  H  H27  1  0.04789968  0.64294607  0.02964047  1
  H  H28  1  0.17328371  0.72935410  0.84425697  1
  H  H29  1  0.06771627  0.86625151  0.85327301  1
  H  H30  1  0.84663093  0.74155929  0.14486092  1
  H  H31  1  0.86050478  0.87253689  0.04472080  1
  Al  Al32  1  0.47586633  0.00076373  0.13590799  1
  Al  Al33  1  0.97586289  0.49923827  0.36408390  1
  Au  Au34  1  0.03272381  0.01122083  0.67052488  1
  Au  Au35  1  0.53266396  0.48878271  0.82951764  1
  I  I36  1  0.48256209  0.20803361  0.01615519  1
  I  I37  1  0.21531360  0.98245727  0.25773812  1
  I  I38  1  0.70594074  0.01736391  0.30806076  1
  I  I39  1  0.98259316  0.29196482  0.48382801  1
  I  I40  1  0.32425978  0.00601279  0.67362203  1
  I  I41  1  0.76033800  0.99250740  0.76306200  1
  I  I42  1  0.49898337  0.79185537  0.00194488  1
  I  I43  1  0.71530750  0.51754930  0.24225173  1
  I  I44  1  0.20594377  0.48264167  0.19194003  1
  I  I45  1  0.99894984  0.70814771  0.49805100  1
  I  I46  1  0.26028899  0.50746438  0.73693827  1
  I  I47  1  0.82420105  0.49400084  0.82634344  1
