# generated using pymatgen
data_AlH10IrC2(I3N2)2
_symmetry_space_group_name_H-M   'P 1'
_cell_length_a   8.37657511
_cell_length_b   11.28040067
_cell_length_c   8.36649092
_cell_angle_alpha   90.06272704
_cell_angle_beta   89.99977755
_cell_angle_gamma   89.99738741
_symmetry_Int_Tables_number   1
_chemical_formula_structural   AlH10IrC2(I3N2)2
_chemical_formula_sum   'Al2 H20 Ir2 C4 I12 N8'
_cell_volume   790.55865118
_cell_formula_units_Z   2
loop_
 _symmetry_equiv_pos_site_id
 _symmetry_equiv_pos_as_xyz
  1  'x, y, z'
loop_
 _atom_site_type_symbol
 _atom_site_label
 _atom_site_symmetry_multiplicity
 _atom_site_fract_x
 _atom_site_fract_y
 _atom_site_fract_z
 _atom_site_occupancy
  C  C0  1  0.49439422  0.29065761  0.49650081  1
  C  C1  1  0.99446492  0.20933017  0.00350362  1
  C  C2  1  0.50551205  0.79068193  0.50384721  1
  C  C3  1  0.00543327  0.70932570  0.99613889  1
  N  N4  1  0.59414610  0.23793873  0.59347054  1
  N  N5  1  0.39799431  0.23698918  0.39698444  1
  N  N6  1  0.09424516  0.26205501  0.90657806  1
  N  N7  1  0.89804275  0.26300590  0.10302445  1
  N  N8  1  0.60270836  0.73700142  0.60231577  1
  N  N9  1  0.40505797  0.73796100  0.40734448  1
  N  N10  1  0.10265411  0.76301166  0.89768565  1
  N  N11  1  0.90495948  0.76203812  0.09261245  1
  H  H12  1  0.49087694  0.38717742  0.49899758  1
  H  H13  1  0.66396649  0.28880452  0.66674920  1
  H  H14  1  0.60766186  0.14805363  0.59987513  1
  H  H15  1  0.32515801  0.28754142  0.32642623  1
  H  H16  1  0.38952065  0.14697132  0.38598275  1
  H  H17  1  0.99092599  0.11281528  0.00098095  1
  H  H18  1  0.16407469  0.21118782  0.83329803  1
  H  H19  1  0.10778644  0.35193540  0.90021224  1
  H  H20  1  0.82519233  0.21244883  0.17355401  1
  H  H21  1  0.88958471  0.35301629  0.11404517  1
  H  H22  1  0.50876384  0.88720655  0.50177278  1
  H  H23  1  0.67649531  0.78758174  0.67206718  1
  H  H24  1  0.60918435  0.64702563  0.61509463  1
  H  H25  1  0.33438037  0.78879537  0.33507270  1
  H  H26  1  0.39375618  0.64802715  0.39848749  1
  H  H27  1  0.00870204  0.61280009  0.99819922  1
  H  H28  1  0.17646217  0.71243698  0.82795125  1
  H  H29  1  0.10911897  0.85298663  0.88492254  1
  H  H30  1  0.83426285  0.71119956  0.16486414  1
  H  H31  1  0.89362516  0.85197540  0.10146740  1
  Al  Al32  1  0.49771823  0.99998025  0.99933637  1
  Al  Al33  1  0.99777240  0.50004518  0.50073726  1
  Ir  Ir34  1  0.00039095  0.00001457  0.49858490  1
  Ir  Ir35  1  0.50038004  0.49999957  0.00142550  1
  I  I36  1  0.49844684  0.25459975  0.99770373  1
  I  I37  1  0.20088288  0.98871016  0.23938135  1
  I  I38  1  0.74234084  0.00925175  0.29713745  1
  I  I39  1  0.99840041  0.24541360  0.50234120  1
  I  I40  1  0.25928309  0.01186035  0.69896966  1
  I  I41  1  0.79939943  0.99010585  0.75670521  1
  I  I42  1  0.50199484  0.74540731  0.00287716  1
  I  I43  1  0.70087024  0.51128222  0.26061303  1
  I  I44  1  0.24232542  0.49077471  0.20286862  1
  I  I45  1  0.00204274  0.75460377  0.49707620  1
  I  I46  1  0.29939021  0.50991021  0.74329054  1
  I  I47  1  0.75926872  0.48812028  0.80102960  1
