# generated using pymatgen
data_AlInH10C2(I3N2)2
_symmetry_space_group_name_H-M   'P 1'
_cell_length_a   8.58740992
_cell_length_b   11.84025186
_cell_length_c   8.57632115
_cell_angle_alpha   89.82597006
_cell_angle_beta   89.99993055
_cell_angle_gamma   90.00136546
_symmetry_Int_Tables_number   1
_chemical_formula_structural   AlInH10C2(I3N2)2
_chemical_formula_sum   'Al2 In2 H20 C4 I12 N8'
_cell_volume   872.01140884
_cell_formula_units_Z   2
loop_
 _symmetry_equiv_pos_site_id
 _symmetry_equiv_pos_as_xyz
  1  'x, y, z'
loop_
 _atom_site_type_symbol
 _atom_site_label
 _atom_site_symmetry_multiplicity
 _atom_site_fract_x
 _atom_site_fract_y
 _atom_site_fract_z
 _atom_site_occupancy
  C  C0  1  0.49405728  0.28888322  0.49601759  1
  C  C1  1  0.99411858  0.21111058  0.00400001  1
  C  C2  1  0.50615258  0.78893354  0.50340304  1
  C  C3  1  0.00609243  0.71107124  0.99657994  1
  N  N4  1  0.59275571  0.23859296  0.59004520  1
  N  N5  1  0.39877920  0.23805616  0.39952440  1
  N  N6  1  0.09284574  0.26140373  0.91000088  1
  N  N7  1  0.89882720  0.26193427  0.10047795  1
  N  N8  1  0.60030617  0.73811095  0.60139237  1
  N  N9  1  0.40866409  0.73863392  0.40851729  1
  N  N10  1  0.10025879  0.76190231  0.89861201  1
  N  N11  1  0.90856891  0.76136094  0.09144074  1
  H  H12  1  0.49059970  0.38090491  0.49848964  1
  H  H13  1  0.66278213  0.28660707  0.65963495  1
  H  H14  1  0.60262812  0.15290472  0.59966191  1
  H  H15  1  0.32551481  0.28613971  0.33279151  1
  H  H16  1  0.39419490  0.15247045  0.38536906  1
  H  H17  1  0.99065114  0.11908877  0.00151216  1
  H  H18  1  0.16288761  0.21339017  0.84042973  1
  H  H19  1  0.10274544  0.34709132  0.90041294  1
  H  H20  1  0.82554344  0.21384761  0.16718869  1
  H  H21  1  0.89425062  0.34751875  0.11464643  1
  H  H22  1  0.50952923  0.88095967  0.50033261  1
  H  H23  1  0.67027618  0.78617369  0.67116061  1
  H  H24  1  0.60982946  0.65237272  0.61132533  1
  H  H25  1  0.34157934  0.78669372  0.33569828  1
  H  H26  1  0.39396755  0.65310941  0.40447236  1
  H  H27  1  0.00948141  0.61904583  0.99965744  1
  H  H28  1  0.17025216  0.71384743  0.82886085  1
  H  H29  1  0.10977080  0.84764063  0.88867972  1
  H  H30  1  0.84146817  0.71329297  0.16423761  1
  H  H31  1  0.89384540  0.84688367  0.09546952  1
  Al  Al32  1  0.49882408  0.99996858  0.99841961  1
  Al  Al33  1  0.99882358  0.50004587  0.50159811  1
  In  In34  1  0.00017679  0.00007453  0.49836273  1
  In  In35  1  0.50017476  0.49994407  0.00165403  1
  I  I36  1  0.49819083  0.22956491  0.99515407  1
  I  I37  1  0.23302737  0.99044342  0.19350064  1
  I  I38  1  0.69523015  0.01093682  0.26495518  1
  I  I39  1  0.99815216  0.27044864  0.50488532  1
  I  I40  1  0.30469169  0.00802030  0.73157749  1
  I  I41  1  0.76595981  0.99060446  0.80250312  1
  I  I42  1  0.50231645  0.77041884  0.00359089  1
  I  I43  1  0.73301313  0.50954964  0.30651398  1
  I  I44  1  0.19521848  0.48906386  0.23504262  1
  I  I45  1  0.00235465  0.72959252  0.49636903  1
  I  I46  1  0.26595771  0.50941841  0.69750427  1
  I  I47  1  0.80468338  0.49199109  0.76843089  1
