# generated using pymatgen
data_AlAgH10C2(I3N2)2
_symmetry_space_group_name_H-M   'P 1'
_cell_length_a   8.71390269
_cell_length_b   10.82405975
_cell_length_c   9.26974728
_cell_angle_alpha   91.42974797
_cell_angle_beta   90.00703388
_cell_angle_gamma   90.00375377
_symmetry_Int_Tables_number   1
_chemical_formula_structural   AlAgH10C2(I3N2)2
_chemical_formula_sum   'Al2 Ag2 H20 C4 I12 N8'
_cell_volume   874.04853009
_cell_formula_units_Z   2
loop_
 _symmetry_equiv_pos_site_id
 _symmetry_equiv_pos_as_xyz
  1  'x, y, z'
loop_
 _atom_site_type_symbol
 _atom_site_label
 _atom_site_symmetry_multiplicity
 _atom_site_fract_x
 _atom_site_fract_y
 _atom_site_fract_z
 _atom_site_occupancy
  C  C0  1  0.51762896  0.29485538  0.51080454  1
  C  C1  1  0.01767406  0.20515265  0.98921713  1
  C  C2  1  0.50480370  0.78160513  0.51236780  1
  C  C3  1  0.00473764  0.71840207  0.98768791  1
  N  N4  1  0.58331929  0.24039864  0.61919086  1
  N  N5  1  0.40737707  0.24679795  0.43015565  1
  N  N6  1  0.08334044  0.25964224  0.88085053  1
  N  N7  1  0.90742038  0.25316895  0.06986279  1
  N  N8  1  0.59299673  0.73562849  0.61197343  1
  N  N9  1  0.41240847  0.71834426  0.42594808  1
  N  N10  1  0.09283850  0.76435494  0.88800517  1
  N  N11  1  0.91226760  0.78167379  0.07397918  1
  H  H12  1  0.56102941  0.38573598  0.48269901  1
  H  H13  1  0.66655687  0.28701066  0.67682501  1
  H  H14  1  0.54934798  0.15548968  0.65391375  1
  H  H15  1  0.35993789  0.29724696  0.34994102  1
  H  H16  1  0.35552584  0.16518484  0.45529768  1
  H  H17  1  0.06110129  0.11428012  0.01730768  1
  H  H18  1  0.16657748  0.21307222  0.82322210  1
  H  H19  1  0.04933895  0.34455602  0.84614246  1
  H  H20  1  0.86000584  0.20268970  0.15006568  1
  H  H21  1  0.85554665  0.33476804  0.04474126  1
  H  H22  1  0.50981066  0.88124004  0.49890258  1
  H  H23  1  0.66026239  0.79563979  0.67249665  1
  H  H24  1  0.59505009  0.64421951  0.63703336  1
  H  H25  1  0.34358198  0.76453545  0.35629907  1
  H  H26  1  0.39234798  0.62635627  0.43725160  1
  H  H27  1  0.00992204  0.61879923  0.00135730  1
  H  H28  1  0.16017262  0.70433308  0.82756621  1
  H  H29  1  0.09472141  0.85571320  0.86278400  1
  H  H30  1  0.84351504  0.73551286  0.14371447  1
  H  H31  1  0.89202451  0.87362111  0.06245179  1
  Al  Al32  1  0.48251524  0.99838716  0.13101309  1
  Al  Al33  1  0.98255812  0.50159905  0.36898777  1
  Ag  Ag34  1  0.00992468  0.01495243  0.57560475  1
  Ag  Ag35  1  0.51005189  0.48510437  0.92442128  1
  I  I36  1  0.48801762  0.20936413  0.01215258  1
  I  I37  1  0.21345381  0.98208787  0.25052730  1
  I  I38  1  0.71403171  0.01243299  0.30631243  1
  I  I39  1  0.98798916  0.29063849  0.48787989  1
  I  I40  1  0.29481415  0.01242601  0.69681023  1
  I  I41  1  0.78686613  0.99174727  0.77615588  1
  I  I42  1  0.49857550  0.79010434  0.99869002  1
  I  I43  1  0.71346616  0.51789174  0.24944672  1
  I  I44  1  0.21405307  0.48750187  0.19372209  1
  I  I45  1  0.99869105  0.70990643  0.50124883  1
  I  I46  1  0.28692079  0.50829127  0.72389963  1
  I  I47  1  0.79490050  0.48759831  0.80317652  1
