# generated using pymatgen
data_YAlH10C2(I3N2)2
_symmetry_space_group_name_H-M   'P 1'
_cell_length_a   8.62568841
_cell_length_b   12.12817968
_cell_length_c   8.61854521
_cell_angle_alpha   90.06121943
_cell_angle_beta   89.99838648
_cell_angle_gamma   89.99571023
_symmetry_Int_Tables_number   1
_chemical_formula_structural   YAlH10C2(I3N2)2
_chemical_formula_sum   'Y2 Al2 H20 C4 I12 N8'
_cell_volume   901.61909937
_cell_formula_units_Z   2
loop_
 _symmetry_equiv_pos_site_id
 _symmetry_equiv_pos_as_xyz
  1  'x, y, z'
loop_
 _atom_site_type_symbol
 _atom_site_label
 _atom_site_symmetry_multiplicity
 _atom_site_fract_x
 _atom_site_fract_y
 _atom_site_fract_z
 _atom_site_occupancy
  C  C0  1  0.49310132  0.28863834  0.49634914  1
  C  C1  1  0.99316506  0.21134959  0.00366441  1
  C  C2  1  0.50668388  0.78862877  0.50391211  1
  C  C3  1  0.00659971  0.71138512  0.99606925  1
  N  N4  1  0.59058313  0.23951805  0.59055201  1
  N  N5  1  0.39931404  0.23896478  0.39890096  1
  N  N6  1  0.09068965  0.26046795  0.90949641  1
  N  N7  1  0.89935712  0.26101839  0.10109312  1
  N  N8  1  0.60132485  0.73898266  0.60037297  1
  N  N9  1  0.40851015  0.73945265  0.41026762  1
  N  N10  1  0.10127331  0.76102729  0.89963431  1
  N  N11  1  0.90840240  0.76054534  0.08968720  1
  H  H12  1  0.48938856  0.37849884  0.49953924  1
  H  H13  1  0.65872191  0.28618615  0.66180727  1
  H  H14  1  0.60337927  0.15594413  0.59555269  1
  H  H15  1  0.32797887  0.28563651  0.33083397  1
  H  H16  1  0.39255109  0.15529115  0.38774709  1
  H  H17  1  0.98945077  0.12148843  0.00044296  1
  H  H18  1  0.15886133  0.21380058  0.83825955  1
  H  H19  1  0.10351136  0.34404353  0.90454776  1
  H  H20  1  0.82799716  0.21434975  0.16913634  1
  H  H21  1  0.89259868  0.34469374  0.11227294  1
  H  H22  1  0.51016820  0.87848550  0.50100861  1
  H  H23  1  0.67308105  0.78572680  0.66809464  1
  H  H24  1  0.60693510  0.65535556  0.61254134  1
  H  H25  1  0.33997524  0.78606007  0.33950401  1
  H  H26  1  0.39732075  0.65583337  0.40352996  1
  H  H27  1  0.01009285  0.62151992  0.99895251  1
  H  H28  1  0.17305321  0.71428831  0.83192314  1
  H  H29  1  0.10687572  0.84465592  0.88748783  1
  H  H30  1  0.83982843  0.71394337  0.16041950  1
  H  H31  1  0.89717761  0.84417773  0.09642497  1
  Al  Al32  1  0.49956169  0.99992359  0.99866804  1
  Al  Al33  1  0.99956578  0.50010213  0.50136097  1
  Y  Y34  1  0.00082854  0.00006913  0.49865063  1
  Y  Y35  1  0.50082048  0.49995054  0.00136218  1
  I  I36  1  0.49775018  0.25434518  0.99448105  1
  I  I37  1  0.19878454  0.98774130  0.20791028  1
  I  I38  1  0.70969187  0.01630698  0.30036192  1
  I  I39  1  0.99771719  0.24566960  0.50556335  1
  I  I40  1  0.29067267  0.01316937  0.69731985  1
  I  I41  1  0.80195000  0.98283177  0.78906013  1
  I  I42  1  0.50180838  0.74561530  0.00596071  1
  I  I43  1  0.69876512  0.51225283  0.29210511  1
  I  I44  1  0.20967101  0.48371948  0.19963407  1
  I  I45  1  0.00184999  0.75440275  0.49400027  1
  I  I46  1  0.30196310  0.51719056  0.71094140  1
  I  I47  1  0.79066703  0.48681415  0.80269899  1
