# generated using pymatgen
data_AlGaH10C2(I3N2)2
_symmetry_space_group_name_H-M   'P 1'
_cell_length_a   8.49756346
_cell_length_b   11.61132284
_cell_length_c   8.48757784
_cell_angle_alpha   89.82746181
_cell_angle_beta   90.00006466
_cell_angle_gamma   90.00273815
_symmetry_Int_Tables_number   1
_chemical_formula_structural   AlGaH10C2(I3N2)2
_chemical_formula_sum   'Al2 Ga2 H20 C4 I12 N8'
_cell_volume   837.44813079
_cell_formula_units_Z   2
loop_
 _symmetry_equiv_pos_site_id
 _symmetry_equiv_pos_as_xyz
  1  'x, y, z'
loop_
 _atom_site_type_symbol
 _atom_site_label
 _atom_site_symmetry_multiplicity
 _atom_site_fract_x
 _atom_site_fract_y
 _atom_site_fract_z
 _atom_site_occupancy
  C  C0  1  0.49425279  0.28943884  0.49599380  1
  C  C1  1  0.99433391  0.21057482  0.00400323  1
  C  C2  1  0.50599306  0.78947743  0.50336540  1
  C  C3  1  0.00593036  0.71053367  0.99661895  1
  N  N4  1  0.59382794  0.23827102  0.59112570  1
  N  N5  1  0.39817859  0.23743270  0.39869052  1
  N  N6  1  0.09390320  0.26171174  0.90893130  1
  N  N7  1  0.89821224  0.26255348  0.10132419  1
  N  N8  1  0.60108520  0.73757355  0.60212844  1
  N  N9  1  0.40751575  0.73826660  0.40760737  1
  N  N10  1  0.10103070  0.76243350  0.89787631  1
  N  N11  1  0.90741461  0.76172644  0.09235587  1
  H  H12  1  0.49073048  0.38323115  0.49818074  1
  H  H13  1  0.66380938  0.28748318  0.66195650  1
  H  H14  1  0.60493189  0.15094434  0.60028520  1
  H  H15  1  0.32489914  0.28655177  0.33041619  1
  H  H16  1  0.39223877  0.15009566  0.38548099  1
  H  H17  1  0.99077679  0.11675156  0.00182397  1
  H  H18  1  0.16391311  0.21251588  0.83810242  1
  H  H19  1  0.10505031  0.34905714  0.89978263  1
  H  H20  1  0.82492988  0.21343717  0.16956052  1
  H  H21  1  0.89229561  0.34988982  0.11452832  1
  H  H22  1  0.50946880  0.88330181  0.50037431  1
  H  H23  1  0.67241235  0.78667539  0.67193622  1
  H  H24  1  0.60980441  0.65017304  0.61332723  1
  H  H25  1  0.33907829  0.78749823  0.33477093  1
  H  H26  1  0.39348776  0.65100470  0.40217117  1
  H  H27  1  0.00941226  0.61670093  0.99963000  1
  H  H28  1  0.17237572  0.71334555  0.82808912  1
  H  H29  1  0.10974092  0.84983964  0.88667233  1
  H  H30  1  0.83896679  0.71249323  0.16517600  1
  H  H31  1  0.89336480  0.84899337  0.09777167  1
  Al  Al32  1  0.49849118  0.99996397  0.99849344  1
  Al  Al33  1  0.99849910  0.50005346  0.50152887  1
  Ga  Ga34  1  0.99984416  0.00013607  0.49896488  1
  Ga  Ga35  1  0.49984599  0.49989896  0.00106774  1
  I  I36  1  0.49834472  0.23430601  0.99597496  1
  I  I37  1  0.23218472  0.98966916  0.20069392  1
  I  I38  1  0.70288356  0.01027314  0.26537036  1
  I  I39  1  0.99830046  0.26570690  0.50406030  1
  I  I40  1  0.29750501  0.00920638  0.73045459  1
  I  I41  1  0.76682046  0.99088661  0.79484072  1
  I  I42  1  0.50226326  0.76567617  0.00285559  1
  I  I43  1  0.73217427  0.51031735  0.29931209  1
  I  I44  1  0.20287716  0.48972574  0.23462459  1
  I  I45  1  0.00230760  0.73433353  0.49709907  1
  I  I46  1  0.26681759  0.50913416  0.70516006  1
  I  I47  1  0.79749426  0.49079803  0.76954602  1
