# generated using pymatgen
data_AlCuH10C2(I3N2)2
_symmetry_space_group_name_H-M   'P 1'
_cell_length_a   9.25483072
_cell_length_b   10.67235122
_cell_length_c   8.76142086
_cell_angle_alpha   89.51025656
_cell_angle_beta   90.00294759
_cell_angle_gamma   89.99821132
_symmetry_Int_Tables_number   1
_chemical_formula_structural   AlCuH10C2(I3N2)2
_chemical_formula_sum   'Al2 Cu2 H20 C4 I12 N8'
_cell_volume   865.34096809
_cell_formula_units_Z   2
loop_
 _symmetry_equiv_pos_site_id
 _symmetry_equiv_pos_as_xyz
  1  'x, y, z'
loop_
 _atom_site_type_symbol
 _atom_site_label
 _atom_site_symmetry_multiplicity
 _atom_site_fract_x
 _atom_site_fract_y
 _atom_site_fract_z
 _atom_site_occupancy
  C  C0  1  0.49812047  0.28070111  0.50638500  1
  C  C1  1  0.99816881  0.21928463  0.99358015  1
  C  C2  1  0.51761017  0.79829659  0.48735768  1
  C  C3  1  0.01753043  0.70169732  0.01264416  1
  N  N4  1  0.59053314  0.22729498  0.60022487  1
  N  N5  1  0.42585097  0.22422309  0.39826665  1
  N  N6  1  0.09063870  0.27270571  0.89986239  1
  N  N7  1  0.92587035  0.27572837  0.10172192  1
  N  N8  1  0.59475659  0.75110872  0.59955380  1
  N  N9  1  0.40840041  0.74265777  0.42037099  1
  N  N10  1  0.09467455  0.74885638  0.90043151  1
  N  N11  1  0.90835324  0.75737418  0.07962733  1
  H  H12  1  0.47644931  0.38022868  0.52248155  1
  H  H13  1  0.63950812  0.28009493  0.68215284  1
  H  H14  1  0.61679414  0.13434700  0.59749937  1
  H  H15  1  0.35986741  0.27817103  0.32945970  1
  H  H16  1  0.44135389  0.13267304  0.37060405  1
  H  H17  1  0.97642503  0.11977689  0.97738162  1
  H  H18  1  0.13963915  0.21993537  0.81792028  1
  H  H19  1  0.11699188  0.36562962  0.90273637  1
  H  H20  1  0.85983738  0.22176770  0.17045352  1
  H  H21  1  0.94142528  0.36725265  0.12948075  1
  H  H22  1  0.55015429  0.89021936  0.44314270  1
  H  H23  1  0.67476912  0.80502253  0.64766189  1
  H  H24  1  0.56856233  0.66790879  0.65171287  1
  H  H25  1  0.35777643  0.78590308  0.33086398  1
  H  H26  1  0.37357241  0.65487174  0.44994213  1
  H  H27  1  0.05004983  0.60977020  0.05686788  1
  H  H28  1  0.17467735  0.69492611  0.85232857  1
  H  H29  1  0.06850264  0.83206107  0.84827728  1
  H  H30  1  0.85773011  0.71415462  0.16914097  1
  H  H31  1  0.87354938  0.84516766  0.05004248  1
  Al  Al32  1  0.39043342  -0.00022220  0.97867252  1
  Al  Al33  1  0.89045666  0.50023313  0.52132123  1
  Cu  Cu34  1  0.88544093  0.09505840  0.52556643  1
  Cu  Cu35  1  0.38550009  0.40508437  0.97443547  1
  I  I36  1  0.53786054  0.20687956  0.00106503  1
  I  I37  1  0.20403291  0.99869789  0.19737547  1
  I  I38  1  0.76259880  0.01809216  0.29003764  1
  I  I39  1  0.03793162  0.29315535  0.49895218  1
  I  I40  1  0.28002450  0.01040105  0.70883190  1
  I  I41  1  0.82487706  0.98156002  0.76867271  1
  I  I42  1  0.52052828  0.79274725  0.00958884  1
  I  I43  1  0.70406608  0.50126390  0.30259093  1
  I  I44  1  0.26262492  0.48196022  0.20997229  1
  I  I45  1  0.02050513  0.70728183  0.49040539  1
  I  I46  1  0.32492891  0.51849376  0.73128358  1
  I  I47  1  0.78006616  0.48956536  0.79115589  1
