# generated using pymatgen
data_MgCdH12C2(I3N)2
_symmetry_space_group_name_H-M   'P 1'
_cell_length_a   8.25675258
_cell_length_b   11.89596553
_cell_length_c   8.19580018
_cell_angle_alpha   89.51188306
_cell_angle_beta   89.99308511
_cell_angle_gamma   90.00125368
_symmetry_Int_Tables_number   1
_chemical_formula_structural   MgCdH12C2(I3N)2
_chemical_formula_sum   'Mg2 Cd2 H24 C4 I12 N4'
_cell_volume   804.97902764
_cell_formula_units_Z   2
loop_
 _symmetry_equiv_pos_site_id
 _symmetry_equiv_pos_as_xyz
  1  'x, y, z'
loop_
 _atom_site_type_symbol
 _atom_site_label
 _atom_site_symmetry_multiplicity
 _atom_site_fract_x
 _atom_site_fract_y
 _atom_site_fract_z
 _atom_site_occupancy
  C  C0  1  0.40614453  0.24960475  0.41647344  1
  C  C1  1  0.90678527  0.25041980  0.08389053  1
  C  C2  1  0.59385351  0.75039768  0.58353688  1
  C  C3  1  0.09321897  0.74958385  0.91612109  1
  N  N4  1  0.54938627  0.24928626  0.52494115  1
  N  N5  1  0.04965522  0.25063404  0.97489717  1
  N  N6  1  0.45061045  0.75071963  0.47507059  1
  N  N7  1  0.95034948  0.74936625  0.02511517  1
  H  H8  1  0.44761687  0.25018531  0.28963678  1
  H  H9  1  0.33488450  0.17393228  0.44102598  1
  H  H10  1  0.33453627  0.32481457  0.44072207  1
  H  H11  1  0.62035249  0.17895050  0.50222635  1
  H  H12  1  0.62026721  0.31994185  0.50161782  1
  H  H13  1  0.51814985  0.24877659  0.64848251  1
  H  H14  1  0.94871156  0.24988022  0.21056418  1
  H  H15  1  0.83505660  0.17518221  0.06000537  1
  H  H16  1  0.83547244  0.32607240  0.05955052  1
  H  H17  1  0.12054662  0.17999401  0.99800626  1
  H  H18  1  0.12074975  0.32098395  0.99733088  1
  H  H19  1  0.01801716  0.25115323  0.85146664  1
  H  H20  1  0.55238116  0.74981855  0.71037409  1
  H  H21  1  0.66545900  0.67518774  0.55928855  1
  H  H22  1  0.66511571  0.82606977  0.55898411  1
  H  H23  1  0.37964616  0.82105435  0.49778478  1
  H  H24  1  0.37972850  0.68006317  0.49839355  1
  H  H25  1  0.48184723  0.75122766  0.35152810  1
  H  H26  1  0.05129204  0.75012482  0.78944761  1
  H  H27  1  0.16494550  0.82482220  0.94000796  1
  H  H28  1  0.16453424  0.67393205  0.94045835  1
  H  H29  1  0.87945468  0.82000452  0.00200701  1
  H  H30  1  0.87925823  0.67901459  0.00268079  1
  H  H31  1  0.98198797  0.74884709  0.14854559  1
  Mg  Mg32  1  0.50000238  0.00000146  0.00000467  1
  Mg  Mg33  1  0.00000448  0.50000427  0.50001146  1
  Cd  Cd34  1  0.99999923  0.00000528  0.50000254  1
  Cd  Cd35  1  0.50000132  0.50000074  0.00001340  1
  I  I36  1  0.48305598  0.24538445  0.94988856  1
  I  I37  1  0.19549653  0.00865351  0.18555693  1
  I  I38  1  0.68940862  0.01064842  0.30931458  1
  I  I39  1  0.98255215  0.25461907  0.55026646  1
  I  I40  1  0.31058641  0.98935585  0.69070083  1
  I  I41  1  0.80450332  0.99134819  0.81445543  1
  I  I42  1  0.51694711  0.75461876  0.05012410  1
  I  I43  1  0.69550085  0.49136513  0.31439486  1
  I  I44  1  0.18939212  0.48930035  0.19068235  1
  I  I45  1  0.01744615  0.74538580  0.44974758  1
  I  I46  1  0.30450446  0.50863788  0.68562010  1
  I  I47  1  0.81060718  0.51070323  0.80933084  1
