# generated using pymatgen
data_ScAlH10C2(I3N2)2
_symmetry_space_group_name_H-M   'P 1'
_cell_length_a   8.54182173
_cell_length_b   11.83095743
_cell_length_c   8.53321453
_cell_angle_alpha   90.13087566
_cell_angle_beta   89.99967038
_cell_angle_gamma   89.99558873
_symmetry_Int_Tables_number   1
_chemical_formula_structural   ScAlH10C2(I3N2)2
_chemical_formula_sum   'Sc2 Al2 H20 C4 I12 N8'
_cell_volume   862.34673830
_cell_formula_units_Z   2
loop_
 _symmetry_equiv_pos_site_id
 _symmetry_equiv_pos_as_xyz
  1  'x, y, z'
loop_
 _atom_site_type_symbol
 _atom_site_label
 _atom_site_symmetry_multiplicity
 _atom_site_fract_x
 _atom_site_fract_y
 _atom_site_fract_z
 _atom_site_occupancy
  C  C0  1  0.49379914  0.28880406  0.49644211  1
  C  C1  1  0.99385249  0.21118250  0.00357155  1
  C  C2  1  0.50602175  0.78878577  0.50397554  1
  C  C3  1  0.00596776  0.71122809  0.99599279  1
  N  N4  1  0.59205983  0.23875102  0.59179668  1
  N  N5  1  0.39916105  0.23793069  0.39813228  1
  N  N6  1  0.09215376  0.26123430  0.90824870  1
  N  N7  1  0.89920788  0.26205435  0.10186795  1
  N  N8  1  0.60162464  0.73795006  0.60113761  1
  N  N9  1  0.40690935  0.73868081  0.40931466  1
  N  N10  1  0.10157853  0.76205365  0.89886891  1
  N  N11  1  0.90681396  0.76133317  0.09065260  1
  H  H12  1  0.49014865  0.38090820  0.49937261  1
  H  H13  1  0.65967095  0.28734099  0.66410035  1
  H  H14  1  0.60644252  0.15315371  0.59727699  1
  H  H15  1  0.32836366  0.28634517  0.32880702  1
  H  H16  1  0.39031872  0.15215373  0.38706420  1
  H  H17  1  0.99018967  0.11908021  0.00060565  1
  H  H18  1  0.15977694  0.21263972  0.83595632  1
  H  H19  1  0.10656011  0.34682576  0.90281673  1
  H  H20  1  0.82838701  0.21364789  0.17117021  1
  H  H21  1  0.89037446  0.34783746  0.11296333  1
  H  H22  1  0.50958094  0.88088183  0.50152595  1
  H  H23  1  0.67437799  0.78642387  0.66860070  1
  H  H24  1  0.60736719  0.65229428  0.61483184  1
  H  H25  1  0.33736309  0.78720425  0.33906016  1
  H  H26  1  0.39564860  0.65296046  0.40021315  1
  H  H27  1  0.00951992  0.61912695  0.99844146  1
  H  H28  1  0.17434947  0.71358399  0.83141461  1
  H  H29  1  0.10732382  0.84771469  0.88518493  1
  H  H30  1  0.83725388  0.71280532  0.16087454  1
  H  H31  1  0.89553269  0.84705247  0.09974798  1
  Al  Al32  1  0.49908675  0.99993342  0.99883024  1
  Al  Al33  1  0.99909278  0.50009201  0.50119826  1
  Sc  Sc34  1  0.00092341  0.00003168  0.49863979  1
  Sc  Sc35  1  0.50091909  0.49998516  0.00137387  1
  I  I36  1  0.49794889  0.26023197  0.99673958  1
  I  I37  1  0.20494828  0.99028977  0.22385758  1
  I  I38  1  0.72686704  0.01028723  0.29256792  1
  I  I39  1  0.99789702  0.23977892  0.50329187  1
  I  I40  1  0.27476433  0.01077180  0.70299472  1
  I  I41  1  0.79485034  0.98859762  0.77204841  1
  I  I42  1  0.50178237  0.73978835  0.00415405  1
  I  I43  1  0.70493650  0.50971881  0.27615396  1
  I  I44  1  0.22685317  0.48973748  0.20742955  1
  I  I45  1  0.00184081  0.76022665  0.49581870  1
  I  I46  1  0.29485218  0.51140944  0.72795836  1
  I  I47  1  0.77475592  0.48921323  0.79701778  1
