# generated using pymatgen
data_AlPH10C2(I3N2)2
_symmetry_space_group_name_H-M   'P 1'
_cell_length_a   8.85257211
_cell_length_b   11.73641612
_cell_length_c   8.47827236
_cell_angle_alpha   90.27930048
_cell_angle_beta   90.00031507
_cell_angle_gamma   89.98819286
_symmetry_Int_Tables_number   1
_chemical_formula_structural   AlPH10C2(I3N2)2
_chemical_formula_sum   'Al2 P2 H20 C4 I12 N8'
_cell_volume   880.86056259
_cell_formula_units_Z   2
loop_
 _symmetry_equiv_pos_site_id
 _symmetry_equiv_pos_as_xyz
  1  'x, y, z'
loop_
 _atom_site_type_symbol
 _atom_site_label
 _atom_site_symmetry_multiplicity
 _atom_site_fract_x
 _atom_site_fract_y
 _atom_site_fract_z
 _atom_site_occupancy
  C  C0  1  0.49558540  0.28914771  0.49563216  1
  C  C1  1  0.99557795  0.21083228  0.00435117  1
  C  C2  1  0.49790738  0.78977368  0.50670209  1
  C  C3  1  0.99788380  0.71010491  0.99330148  1
  N  N4  1  0.59210052  0.23757559  0.58849266  1
  N  N5  1  0.40017819  0.23933989  0.39913574  1
  N  N6  1  0.09212899  0.26241646  0.91158692  1
  N  N7  1  0.90010784  0.26062423  0.10083509  1
  N  N8  1  0.59381067  0.73749955  0.59946980  1
  N  N9  1  0.40033252  0.74028387  0.41230375  1
  N  N10  1  0.09375350  0.76237240  0.90054259  1
  N  N11  1  0.90030456  0.75958958  0.08772718  1
  H  H12  1  0.49438238  0.38207418  0.49952006  1
  H  H13  1  0.65798361  0.28613939  0.66206731  1
  H  H14  1  0.60295548  0.15117532  0.59522106  1
  H  H15  1  0.33209575  0.28907219  0.33040808  1
  H  H16  1  0.39102021  0.15306218  0.38585662  1
  H  H17  1  0.99439443  0.11790670  1.00038022  1
  H  H18  1  0.15808161  0.21386580  0.83805094  1
  H  H19  1  0.10299943  0.34881297  0.90496911  1
  H  H20  1  0.83197904  0.21088110  0.16946893  1
  H  H21  1  0.89088970  0.34690220  0.11415822  1
  H  H22  1  0.49952028  0.88270165  0.50794470  1
  H  H23  1  0.66367177  0.78539385  0.66923976  1
  H  H24  1  0.59980916  0.65099642  0.61119049  1
  H  H25  1  0.33198920  0.79002519  0.34341557  1
  H  H26  1  0.39357407  0.65401238  0.39750691  1
  H  H27  1  -0.00046471  0.61717100  0.99201861  1
  H  H28  1  0.16360148  0.71447731  0.83073024  1
  H  H29  1  0.09969339  0.84887783  0.88883141  1
  H  H30  1  0.83201781  0.70983449  0.15664693  1
  H  H31  1  0.89352552  0.84585364  0.10258347  1
  Al  Al32  1  0.58732506  0.99853153  0.00977157  1
  Al  Al33  1  0.08728885  0.50172628  0.49020418  1
  P  P34  1  0.03661955  0.00353320  0.49257283  1
  P  P35  1  0.53665872  0.49687330  0.00731979  1
  I  I36  1  0.48739204  0.20282617  0.99300638  1
  I  I37  1  0.19527530  0.98075340  0.24613927  1
  I  I38  1  0.72782771  0.00939067  0.28410513  1
  I  I39  1  0.98732519  0.29746920  0.50695724  1
  I  I40  1  0.24814947  0.02016320  0.69408046  1
  I  I41  1  0.78802408  0.98504095  0.78016761  1
  I  I42  1  0.48264948  0.79537152  0.00090198  1
  I  I43  1  0.69530952  0.51923309  0.25383450  1
  I  I44  1  0.22791955  0.49065668  0.21595010  1
  I  I45  1  0.98272601  0.70495988  0.49905982  1
  I  I46  1  0.28795787  0.51494999  0.71987106  1
  I  I47  1  0.74818002  0.47978802  0.80587353  1
