# generated using pymatgen
data_SiH10PbC2(I3N2)2
_symmetry_space_group_name_H-M   'P 1'
_cell_length_a   8.58748659
_cell_length_b   11.96545520
_cell_length_c   8.57842401
_cell_angle_alpha   89.81595699
_cell_angle_beta   90.00010903
_cell_angle_gamma   90.00083510
_symmetry_Int_Tables_number   1
_chemical_formula_structural   SiH10PbC2(I3N2)2
_chemical_formula_sum   'Si2 H20 Pb2 C4 I12 N8'
_cell_volume   881.45585034
_cell_formula_units_Z   2
loop_
 _symmetry_equiv_pos_site_id
 _symmetry_equiv_pos_as_xyz
  1  'x, y, z'
loop_
 _atom_site_type_symbol
 _atom_site_label
 _atom_site_symmetry_multiplicity
 _atom_site_fract_x
 _atom_site_fract_y
 _atom_site_fract_z
 _atom_site_occupancy
  C  C0  1  0.49355454  0.28861965  0.49608886  1
  C  C1  1  0.99361252  0.21137000  0.00392969  1
  C  C2  1  0.50652637  0.78865251  0.50352663  1
  C  C3  1  0.00645797  0.71135444  0.99645870  1
  N  N4  1  0.59237847  0.23899738  0.59016820  1
  N  N5  1  0.39871529  0.23845316  0.39917944  1
  N  N6  1  0.09246805  0.26099814  0.90988261  1
  N  N7  1  0.89875704  0.26153332  0.10082352  1
  N  N8  1  0.60086182  0.73843626  0.60142549  1
  N  N9  1  0.40876569  0.73907263  0.40886108  1
  N  N10  1  0.10080938  0.76158122  0.89857375  1
  N  N11  1  0.90866887  0.76092783  0.09110449  1
  H  H12  1  0.48955556  0.37966499  0.49899032  1
  H  H13  1  0.66207100  0.28672630  0.65972065  1
  H  H14  1  0.60301256  0.15424255  0.59952515  1
  H  H15  1  0.32538141  0.28624155  0.33281809  1
  H  H16  1  0.39419176  0.15380863  0.38452694  1
  H  H17  1  0.98960413  0.12032601  0.00101007  1
  H  H18  1  0.16216304  0.21327291  0.84033269  1
  H  H19  1  0.10312321  0.34575137  0.90055339  1
  H  H20  1  0.82541429  0.21374263  0.16717548  1
  H  H21  1  0.89424657  0.34617580  0.11549458  1
  H  H22  1  0.51012567  0.87972271  0.50045288  1
  H  H23  1  0.67061754  0.78622115  0.67108772  1
  H  H24  1  0.61006300  0.65360974  0.61188515  1
  H  H25  1  0.34189767  0.78684739  0.33618357  1
  H  H26  1  0.39352279  0.65448687  0.40459284  1
  H  H27  1  0.01006938  0.62028329  0.99953244  1
  H  H28  1  0.17060211  0.71379764  0.82893767  1
  H  H29  1  0.11001050  0.84640153  0.88812089  1
  H  H30  1  0.84177480  0.71314460  0.16373624  1
  H  H31  1  0.89339131  0.84550503  0.09534898  1
  Si  Si32  1  0.49377348  0.99934308  0.99934544  1
  Si  Si33  1  0.99381011  0.50079727  0.50067552  1
  Pb  Pb34  1  0.99748405  0.00050127  0.50039868  1
  Pb  Pb35  1  0.49749759  0.49959969  0.99962936  1
  I  I36  1  0.49865348  0.23899349  0.99556631  1
  I  I37  1  0.22622605  0.98903542  0.19979833  1
  I  I38  1  0.70471601  0.01236910  0.27396916  1
  I  I39  1  0.99861588  0.26095193  0.50447012  1
  I  I40  1  0.29797944  0.00999339  0.72345727  1
  I  I41  1  0.77684285  0.98821605  0.79291380  1
  I  I42  1  0.50313689  0.76176704  0.00409953  1
  I  I43  1  0.72619985  0.51095328  0.30020696  1
  I  I44  1  0.20470105  0.48761908  0.22603243  1
  I  I45  1  0.00318274  0.73818032  0.49585977  1
  I  I46  1  0.27682426  0.51178119  0.70708331  1
  I  I47  1  0.79796132  0.48999216  0.77655056  1
