# generated using pymatgen
data_BaSiH10C2(I3N2)2
_symmetry_space_group_name_H-M   'P 1'
_cell_length_a   8.70870678
_cell_length_b   12.36797966
_cell_length_c   8.70178133
_cell_angle_alpha   89.93251706
_cell_angle_beta   89.99986674
_cell_angle_gamma   89.99968272
_symmetry_Int_Tables_number   1
_chemical_formula_structural   BaSiH10C2(I3N2)2
_chemical_formula_sum   'Ba2 Si2 H20 C4 I12 N8'
_cell_volume   937.26045738
_cell_formula_units_Z   2
loop_
 _symmetry_equiv_pos_site_id
 _symmetry_equiv_pos_as_xyz
  1  'x, y, z'
loop_
 _atom_site_type_symbol
 _atom_site_label
 _atom_site_symmetry_multiplicity
 _atom_site_fract_x
 _atom_site_fract_y
 _atom_site_fract_z
 _atom_site_occupancy
  C  C0  1  0.49282634  0.28863128  0.49625077  1
  C  C1  1  0.99289324  0.21135604  0.00376966  1
  C  C2  1  0.50717080  0.78864660  0.50361080  1
  C  C3  1  0.00709275  0.71136297  0.99636279  1
  N  N4  1  0.59013437  0.24007581  0.58859955  1
  N  N5  1  0.39916506  0.23996467  0.40046273  1
  N  N6  1  0.09022824  0.25991326  0.91146088  1
  N  N7  1  0.89920340  0.26001801  0.09954060  1
  N  N8  1  0.60000463  0.73987607  0.60020040  1
  N  N9  1  0.41063930  0.74018642  0.41044680  1
  N  N10  1  0.09994920  0.76014354  0.89980888  1
  N  N11  1  0.91052653  0.75980853  0.08950161  1
  H  H12  1  0.48909164  0.37676935  0.49971774  1
  H  H13  1  0.66016612  0.28527156  0.65715497  1
  H  H14  1  0.59782381  0.15794638  0.59726067  1
  H  H15  1  0.32590133  0.28544750  0.33537200  1
  H  H16  1  0.39797793  0.15811901  0.38501370  1
  H  H17  1  0.98915346  0.12321787  0.00028841  1
  H  H18  1  0.16029501  0.21471827  0.84293298  1
  H  H19  1  0.09794917  0.34204293  0.90283485  1
  H  H20  1  0.82591780  0.21453421  0.16460021  1
  H  H21  1  0.89801946  0.34186319  0.11499954  1
  H  H22  1  0.51076116  0.87679082  0.50017728  1
  H  H23  1  0.66893991  0.78534763  0.66970822  1
  H  H24  1  0.60932396  0.65772344  0.60760799  1
  H  H25  1  0.34489408  0.78539625  0.33763067  1
  H  H26  1  0.39515204  0.65836864  0.40974748  1
  H  H27  1  0.01068801  0.62321567  0.99978778  1
  H  H28  1  0.16891417  0.71467150  0.83031152  1
  H  H29  1  0.10926584  0.84228923  0.89240937  1
  H  H30  1  0.84475145  0.71459792  0.16227722  1
  H  H31  1  0.89501094  0.84163086  0.09018557  1
  Si  Si32  1  0.49863815  0.99993213  0.99885314  1
  Si  Si33  1  0.99863913  0.50008780  0.50116779  1
  Ba  Ba34  1  0.00035290  0.00008562  0.49839336  1
  Ba  Ba35  1  0.50034554  0.49993592  0.00162055  1
  I  I36  1  0.49786966  0.23291931  0.99272621  1
  I  I37  1  0.21552214  0.98711959  0.17898110  1
  I  I38  1  0.68017518  0.01914747  0.28501417  1
  I  I39  1  0.99784959  0.26710048  0.50732190  1
  I  I40  1  0.31922881  0.01156863  0.71439302  1
  I  I41  1  0.78592878  0.98203057  0.81787794  1
  I  I42  1  0.50239962  0.76704876  0.00685247  1
  I  I43  1  0.71549833  0.51286687  0.32104440  1
  I  I44  1  0.18015848  0.48086738  0.21498513  1
  I  I45  1  0.00242710  0.73297096  0.49308892  1
  I  I46  1  0.28593261  0.51800614  0.68212555  1
  I  I47  1  0.81922214  0.48842987  0.78562546  1
