# generated using pymatgen
data_SrSiH10C2(I3N2)2
_symmetry_space_group_name_H-M   'P 1'
_cell_length_a   8.61576540
_cell_length_b   12.08883506
_cell_length_c   8.60880340
_cell_angle_alpha   89.91346541
_cell_angle_beta   89.99993699
_cell_angle_gamma   90.00003958
_symmetry_Int_Tables_number   1
_chemical_formula_structural   SrSiH10C2(I3N2)2
_chemical_formula_sum   'Sr2 Si2 H20 C4 I12 N8'
_cell_volume   896.64516726
_cell_formula_units_Z   2
loop_
 _symmetry_equiv_pos_site_id
 _symmetry_equiv_pos_as_xyz
  1  'x, y, z'
loop_
 _atom_site_type_symbol
 _atom_site_label
 _atom_site_symmetry_multiplicity
 _atom_site_fract_x
 _atom_site_fract_y
 _atom_site_fract_z
 _atom_site_occupancy
  C  C0  1  0.49325015  0.28853875  0.49614769  1
  C  C1  1  0.99330620  0.21145109  0.00387260  1
  C  C2  1  0.50672037  0.78856264  0.50366157  1
  C  C3  1  0.00665344  0.71144456  0.99631959  1
  N  N4  1  0.59152699  0.23926171  0.58989880  1
  N  N5  1  0.39886467  0.23880235  0.39923565  1
  N  N6  1  0.09161148  0.26073199  0.91014980  1
  N  N7  1  0.89890675  0.26118458  0.10076994  1
  N  N8  1  0.60074631  0.73877823  0.60111852  1
  N  N9  1  0.40900699  0.73933332  0.40952831  1
  N  N10  1  0.10069470  0.76124012  0.89888906  1
  N  N11  1  0.90890580  0.76066291  0.09043170  1
  H  H12  1  0.48934117  0.37868661  0.49934820  1
  H  H13  1  0.66141615  0.28609837  0.65940611  1
  H  H14  1  0.60116685  0.15530570  0.59879187  1
  H  H15  1  0.32552251  0.28571399  0.33304592  1
  H  H16  1  0.39564024  0.15503363  0.38429999  1
  H  H17  1  0.98939145  0.12130434  0.00065275  1
  H  H18  1  0.16152164  0.21389664  0.84066013  1
  H  H19  1  0.10127714  0.34468847  0.90129065  1
  H  H20  1  0.82554482  0.21427209  0.16693541  1
  H  H21  1  0.89568820  0.34495116  0.11571523  1
  H  H22  1  0.51044115  0.87871912  0.50040058  1
  H  H23  1  0.67060818  0.78571292  0.67070983  1
  H  H24  1  0.60991597  0.65478938  0.61035915  1
  H  H25  1  0.34234966  0.78615230  0.33666367  1
  H  H26  1  0.39376419  0.65558806  0.40652911  1
  H  H27  1  0.01038651  0.62128795  0.99957557  1
  H  H28  1  0.17057974  0.71431182  0.82931065  1
  H  H29  1  0.10985447  0.84522769  0.88965451  1
  H  H30  1  0.84222822  0.71383354  0.16326443  1
  H  H31  1  0.89363341  0.84440444  0.09341836  1
  Si  Si32  1  0.49832707  0.99997823  0.99864042  1
  Si  Si33  1  0.99832863  0.50003594  0.50137759  1
  Sr  Sr34  1  0.00040467  0.00003352  0.49844401  1
  Sr  Sr35  1  0.50039834  0.49998094  0.00156575  1
  I  I36  1  0.49800966  0.23833733  0.99433557  1
  I  I37  1  0.21820001  0.98832250  0.19320454  1
  I  I38  1  0.69560659  0.01503074  0.28064121  1
  I  I39  1  0.99797497  0.26167662  0.50570235  1
  I  I40  1  0.30495893  0.01064309  0.71674731  1
  I  I41  1  0.78188459  0.98590809  0.80238087  1
  I  I42  1  0.50240584  0.76168066  0.00527963  1
  I  I43  1  0.71818141  0.51167909  0.30680926  1
  I  I44  1  0.19559436  0.48497877  0.21935751  1
  I  I45  1  0.00244710  0.73833363  0.49467551  1
  I  I46  1  0.28188064  0.51411346  0.69762485  1
  I  I47  1  0.80495102  0.48935988  0.78326302  1
