# generated using pymatgen
data_SiGeH10C2(I3N2)2
_symmetry_space_group_name_H-M   'P 1'
_cell_length_a   8.48941552
_cell_length_b   11.87787813
_cell_length_c   8.62140025
_cell_angle_alpha   90.20345905
_cell_angle_beta   90.00336569
_cell_angle_gamma   89.99942618
_symmetry_Int_Tables_number   1
_chemical_formula_structural   SiGeH10C2(I3N2)2
_chemical_formula_sum   'Si2 Ge2 H20 C4 I12 N8'
_cell_volume   869.34412664
_cell_formula_units_Z   2
loop_
 _symmetry_equiv_pos_site_id
 _symmetry_equiv_pos_as_xyz
  1  'x, y, z'
loop_
 _atom_site_type_symbol
 _atom_site_label
 _atom_site_symmetry_multiplicity
 _atom_site_fract_x
 _atom_site_fract_y
 _atom_site_fract_z
 _atom_site_occupancy
  C  C0  1  0.49509693  0.28949810  0.49728090  1
  C  C1  1  0.99515094  0.21049381  0.00272932  1
  C  C2  1  0.50598388  0.78915861  0.50379069  1
  C  C3  1  0.00593623  0.71083713  0.99619478  1
  N  N4  1  0.59241684  0.24021287  0.59352108  1
  N  N5  1  0.40027722  0.23785599  0.40033504  1
  N  N6  1  0.09246087  0.25977230  0.90652415  1
  N  N7  1  0.90032707  0.26214754  0.09970147  1
  N  N8  1  0.60026607  0.73852889  0.60162290  1
  N  N9  1  0.40854075  0.73897614  0.40795494  1
  N  N10  1  0.10020811  0.76148014  0.89836858  1
  N  N11  1  0.90847013  0.76100302  0.09200837  1
  H  H12  1  0.49258871  0.38133088  0.49794512  1
  H  H13  1  0.66284103  0.28899156  0.66251009  1
  H  H14  1  0.60377497  0.15489043  0.60344666  1
  H  H15  1  0.32757898  0.28498229  0.33192780  1
  H  H16  1  0.39282508  0.15232997  0.39046779  1
  H  H17  1  0.99260205  0.11866325  0.00206301  1
  H  H18  1  0.16287456  0.21098850  0.83752441  1
  H  H19  1  0.10386195  0.34509583  0.89661980  1
  H  H20  1  0.82763813  0.21502114  0.16809590  1
  H  H21  1  0.89291161  0.34766867  0.10957934  1
  H  H22  1  0.50921429  0.88098492  0.50181892  1
  H  H23  1  0.67232422  0.78682950  0.66975765  1
  H  H24  1  0.60741378  0.65307679  0.61309141  1
  H  H25  1  0.33890416  0.78707213  0.33778687  1
  H  H26  1  0.39553746  0.65360621  0.40051948  1
  H  H27  1  0.00920431  0.61900962  0.99817364  1
  H  H28  1  0.17227484  0.71318841  0.83024869  1
  H  H29  1  0.10732006  0.84692929  0.88689926  1
  H  H30  1  0.83884491  0.71289337  0.16217360  1
  H  H31  1  0.89541646  0.84637386  0.09943022  1
  Si  Si32  1  0.49177988  0.98236360  0.03122190  1
  Si  Si33  1  0.99181713  0.51766325  0.46879013  1
  Ge  Ge34  1  0.00618673  0.01520768  0.52609951  1
  Ge  Ge35  1  0.50624155  0.48482441  0.97388378  1
  I  I36  1  0.49519246  0.25638325  0.99627317  1
  I  I37  1  0.22633625  0.98565539  0.20933317  1
  I  I38  1  0.70747879  0.00888235  0.26490112  1
  I  I39  1  0.99514677  0.24365144  0.50375312  1
  I  I40  1  0.27755518  0.01216047  0.71200230  1
  I  I41  1  0.78575052  0.99002831  0.76901884  1
  I  I42  1  0.50414445  0.76163963  0.00537120  1
  I  I43  1  0.72633213  0.51435948  0.29068107  1
  I  I44  1  0.20745948  0.49112204  0.23509805  1
  I  I45  1  0.00419895  0.73838782  0.49460186  1
  I  I46  1  0.28574414  0.50998774  0.73098403  1
  I  I47  1  0.77756834  0.48785496  0.78797963  1
