# generated using pymatgen
data_ZnSiH10C2(I3N2)2
_symmetry_space_group_name_H-M   'P 1'
_cell_length_a   9.19831289
_cell_length_b   10.65451415
_cell_length_c   8.76865720
_cell_angle_alpha   89.52994724
_cell_angle_beta   89.99723635
_cell_angle_gamma   90.00639818
_symmetry_Int_Tables_number   1
_chemical_formula_structural   ZnSiH10C2(I3N2)2
_chemical_formula_sum   'Zn2 Si2 H20 C4 I12 N8'
_cell_volume   859.33065005
_cell_formula_units_Z   2
loop_
 _symmetry_equiv_pos_site_id
 _symmetry_equiv_pos_as_xyz
  1  'x, y, z'
loop_
 _atom_site_type_symbol
 _atom_site_label
 _atom_site_symmetry_multiplicity
 _atom_site_fract_x
 _atom_site_fract_y
 _atom_site_fract_z
 _atom_site_occupancy
  C  C0  1  0.50085681  0.29064872  0.49626531  1
  C  C1  1  0.00074849  0.20935662  0.00373233  1
  C  C2  1  0.50580908  0.79182371  0.50178873  1
  C  C3  1  0.00585889  0.70811740  0.99822494  1
  N  N4  1  0.59515524  0.23631675  0.58754253  1
  N  N5  1  0.41153680  0.23384636  0.40314463  1
  N  N6  1  0.09506421  0.26369085  0.91243471  1
  N  N7  1  0.91152196  0.26614569  0.09693843  1
  N  N8  1  0.59372596  0.73634619  0.59875248  1
  N  N9  1  0.41464431  0.73618955  0.40943349  1
  N  N10  1  0.09384615  0.76357368  0.90128120  1
  N  N11  1  0.91463833  0.76376883  0.09047995  1
  H  H12  1  0.49579200  0.39270487  0.49840648  1
  H  H13  1  0.65787715  0.29044335  0.65753920  1
  H  H14  1  0.60576162  0.14135166  0.59892061  1
  H  H15  1  0.34262375  0.28694327  0.33705889  1
  H  H16  1  0.40803860  0.13894456  0.38908801  1
  H  H17  1  0.99558163  0.10729716  0.00151235  1
  H  H18  1  0.15768088  0.20957225  0.84233384  1
  H  H19  1  0.10576320  0.35865346  0.90112374  1
  H  H20  1  0.84261435  0.21304374  0.16304273  1
  H  H21  1  0.90813714  0.36103519  0.11108206  1
  H  H22  1  0.50980101  0.89391030  0.49678213  1
  H  H23  1  0.65824593  0.79044258  0.66757126  1
  H  H24  1  0.59868632  0.64146225  0.61438825  1
  H  H25  1  0.35179839  0.78997252  0.33795210  1
  H  H26  1  0.40063162  0.64132461  0.40438414  1
  H  H27  1  0.00984779  0.60603676  0.00331043  1
  H  H28  1  0.15843242  0.70946232  0.83254879  1
  H  H29  1  0.09882766  0.85846165  0.88559086  1
  H  H30  1  0.85168438  0.71000113  0.16189298  1
  H  H31  1  0.90059861  0.85863359  0.09542805  1
  Si  Si32  1  0.46043732  0.98946882  0.99226510  1
  Si  Si33  1  0.96046771  0.51092620  0.50775285  1
  Zn  Zn34  1  0.89367887  0.00152153  0.51361657  1
  Zn  Zn35  1  0.39378115  0.49856054  0.98641192  1
  I  I36  1  0.53009787  0.28350484  0.00188921  1
  I  I37  1  0.24054980  0.98521229  0.18816722  1
  I  I38  1  0.71328628  0.01179652  0.28046076  1
  I  I39  1  0.03012258  0.21644232  0.49814080  1
  I  I40  1  0.30647805  0.00923495  0.73898122  1
  I  I41  1  0.77866427  0.98708637  0.78880546  1
  I  I42  1  0.52571273  0.72195878  0.00659854  1
  I  I43  1  0.74060254  0.51491041  0.31181738  1
  I  I44  1  0.21331850  0.48808526  0.21953708  1
  I  I45  1  0.02576015  0.77812391  0.49344860  1
  I  I46  1  0.27875405  0.51281743  0.71121087  1
  I  I47  1  0.80647678  0.49089127  0.76102553  1
