# generated using pymatgen
data_CaSiH10C2(I3N2)2
_symmetry_space_group_name_H-M   'P 1'
_cell_length_a   8.53748742
_cell_length_b   11.87604159
_cell_length_c   8.53032188
_cell_angle_alpha   89.92934183
_cell_angle_beta   90.00008118
_cell_angle_gamma   89.99934034
_symmetry_Int_Tables_number   1
_chemical_formula_structural   CaSiH10C2(I3N2)2
_chemical_formula_sum   'Ca2 Si2 H20 C4 I12 N8'
_cell_volume   864.90194875
_cell_formula_units_Z   2
loop_
 _symmetry_equiv_pos_site_id
 _symmetry_equiv_pos_as_xyz
  1  'x, y, z'
loop_
 _atom_site_type_symbol
 _atom_site_label
 _atom_site_symmetry_multiplicity
 _atom_site_fract_x
 _atom_site_fract_y
 _atom_site_fract_z
 _atom_site_occupancy
  C  C0  1  0.49366044  0.28873823  0.49623558  1
  C  C1  1  0.99372171  0.21125293  0.00377605  1
  C  C2  1  0.50641454  0.78876228  0.50367430  1
  C  C3  1  0.00635066  0.71124175  0.99631099  1
  N  N4  1  0.59259022  0.23874258  0.59104757  1
  N  N5  1  0.39862824  0.23803053  0.39848042  1
  N  N6  1  0.09267529  0.26125271  0.90899857  1
  N  N7  1  0.89867078  0.26196273  0.10152754  1
  N  N8  1  0.60134282  0.73807078  0.60163927  1
  N  N9  1  0.40774774  0.73875066  0.40872305  1
  N  N10  1  0.10129567  0.76195690  0.89836591  1
  N  N11  1  0.90765357  0.76123832  0.09123950  1
  H  H12  1  0.48967733  0.38044312  0.49912663  1
  H  H13  1  0.66212678  0.28686820  0.66177596  1
  H  H14  1  0.60398471  0.15337301  0.59941144  1
  H  H15  1  0.32556460  0.28599116  0.33094119  1
  H  H16  1  0.39348161  0.15263227  0.38471381  1
  H  H17  1  0.98972493  0.11955074  0.00086752  1
  H  H18  1  0.16222819  0.21312767  0.83828055  1
  H  H19  1  0.10409806  0.34662211  0.90066940  1
  H  H20  1  0.82559258  0.21399792  0.16904391  1
  H  H21  1  0.89353628  0.34735547  0.11530597  1
  H  H22  1  0.51012109  0.88047859  0.50063437  1
  H  H23  1  0.67244130  0.78607325  0.67108226  1
  H  H24  1  0.60966568  0.65256754  0.61259587  1
  H  H25  1  0.33987395  0.78684840  0.33621529  1
  H  H26  1  0.39344258  0.65348478  0.40364904  1
  H  H27  1  0.01007070  0.61952952  0.99934819  1
  H  H28  1  0.17241986  0.71394188  0.82893268  1
  H  H29  1  0.10960921  0.84743895  0.88741286  1
  H  H30  1  0.83976658  0.71314708  0.16371593  1
  H  H31  1  0.89332110  0.84652044  0.09629716  1
  Si  Si32  1  0.49770169  0.99998663  0.99871633  1
  Si  Si33  1  0.99770598  0.50002685  0.50130731  1
  Ca  Ca34  1  0.99992715  1.00001157  0.49880400  1
  Ca  Ca35  1  0.49992370  0.50000047  0.00121074  1
  I  I36  1  0.49824445  0.24302303  0.99571180  1
  I  I37  1  0.21985093  0.98869287  0.20426643  1
  I  I38  1  0.70722059  0.01250454  0.27818891  1
  I  I39  1  0.99820591  0.25698749  0.50432580  1
  I  I40  1  0.29406915  0.01074277  0.71804046  1
  I  I41  1  0.77991428  0.98794375  0.79102325  1
  I  I42  1  0.50234646  0.75698737  0.00416236  1
  I  I43  1  0.71983734  0.51131104  0.29574387  1
  I  I44  1  0.20721193  0.48750284  0.22181228  1
  I  I45  1  0.00239303  0.74302411  0.49579953  1
  I  I46  1  0.27990816  0.51206753  0.70898546  1
  I  I47  1  0.79405982  0.48925763  0.78196746  1
