# generated using pymatgen
data_TlPH10C2(I3N2)2
_symmetry_space_group_name_H-M   'P 1'
_cell_length_a   8.58439612
_cell_length_b   11.95380044
_cell_length_c   8.57382745
_cell_angle_alpha   89.78276263
_cell_angle_beta   90.00016891
_cell_angle_gamma   90.00196105
_symmetry_Int_Tables_number   1
_chemical_formula_structural   TlPH10C2(I3N2)2
_chemical_formula_sum   'Tl2 P2 H20 C4 I12 N8'
_cell_volume   879.80690926
_cell_formula_units_Z   2
loop_
 _symmetry_equiv_pos_site_id
 _symmetry_equiv_pos_as_xyz
  1  'x, y, z'
loop_
 _atom_site_type_symbol
 _atom_site_label
 _atom_site_symmetry_multiplicity
 _atom_site_fract_x
 _atom_site_fract_y
 _atom_site_fract_z
 _atom_site_occupancy
  C  C0  1  0.49412052  0.28839308  0.49611837  1
  C  C1  1  0.99417491  0.21160614  0.00389714  1
  C  C2  1  0.50605352  0.78844707  0.50319909  1
  C  C3  1  0.00600215  0.71155624  0.99678946  1
  N  N4  1  0.59332491  0.23845001  0.58955354  1
  N  N5  1  0.39890436  0.23812083  0.39954289  1
  N  N6  1  0.09340122  0.26155171  0.91048247  1
  N  N7  1  0.89895183  0.26186824  0.10046405  1
  N  N8  1  0.59963239  0.73826285  0.60196214  1
  N  N9  1  0.40857996  0.73843331  0.40854658  1
  N  N10  1  0.09958105  0.76175028  0.89805045  1
  N  N11  1  0.90848459  0.76156429  0.09142233  1
  H  H12  1  0.49008850  0.37955632  0.49924575  1
  H  H13  1  0.66399243  0.28586994  0.65861386  1
  H  H14  1  0.60320858  0.15353621  0.59933238  1
  H  H15  1  0.32456793  0.28574092  0.33393959  1
  H  H16  1  0.39558753  0.15344590  0.38390914  1
  H  H17  1  0.99013442  0.12043902  0.00075236  1
  H  H18  1  0.16407837  0.21413210  0.84143377  1
  H  H19  1  0.10330651  0.34646412  0.90072887  1
  H  H20  1  0.82460063  0.21424672  0.16605186  1
  H  H21  1  0.89564429  0.34654482  0.11611345  1
  H  H22  1  0.51001879  0.87961896  0.49919871  1
  H  H23  1  0.66898458  0.78594440  0.67219010  1
  H  H24  1  0.60926229  0.65333017  0.61220786  1
  H  H25  1  0.34269139  0.78580695  0.33431273  1
  H  H26  1  0.39235757  0.65378968  0.40606797  1
  H  H27  1  0.00998448  0.62038781  0.00080729  1
  H  H28  1  0.16896367  0.71407555  0.82783572  1
  H  H29  1  0.10919600  0.84668547  0.88779135  1
  H  H30  1  0.84259146  0.71418181  0.16563503  1
  H  H31  1  0.89223963  0.84619869  0.09387718  1
  P  P32  1  0.49752776  0.99996346  0.99794388  1
  P  P33  1  0.99753094  0.50004872  0.50207260  1
  Tl  Tl34  1  0.99896928  0.00006658  0.49811772  1
  Tl  Tl35  1  0.49896898  0.49994498  0.00189236  1
  I  I36  1  0.49829844  0.23172477  0.99498354  1
  I  I37  1  0.23821196  0.99064759  0.19461174  1
  I  I38  1  0.69737719  0.01063752  0.26116525  1
  I  I39  1  0.99825409  0.26828359  0.50505362  1
  I  I40  1  0.30341617  0.00788816  0.73638984  1
  I  I41  1  0.76252939  0.99079541  0.80025951  1
  I  I42  1  0.50234086  0.76821518  0.00359197  1
  I  I43  1  0.73819758  0.50934946  0.30539461  1
  I  I44  1  0.19737083  0.48935773  0.23883027  1
  I  I45  1  0.00238327  0.73179289  0.49637007  1
  I  I46  1  0.26252006  0.50921979  0.69974387  1
  I  I47  1  0.80341213  0.49212755  0.76361043  1
