# generated using pymatgen
data_YPH10C2(I3N2)2
_symmetry_space_group_name_H-M   'P 1'
_cell_length_a   9.26061273
_cell_length_b   11.60638472
_cell_length_c   8.26534518
_cell_angle_alpha   89.91989507
_cell_angle_beta   88.03497717
_cell_angle_gamma   91.04297748
_symmetry_Int_Tables_number   1
_chemical_formula_structural   YPH10C2(I3N2)2
_chemical_formula_sum   'Y2 P2 H20 C4 I12 N8'
_cell_volume   887.70643613
_cell_formula_units_Z   2
loop_
 _symmetry_equiv_pos_site_id
 _symmetry_equiv_pos_as_xyz
  1  'x, y, z'
loop_
 _atom_site_type_symbol
 _atom_site_label
 _atom_site_symmetry_multiplicity
 _atom_site_fract_x
 _atom_site_fract_y
 _atom_site_fract_z
 _atom_site_occupancy
  C  C0  1  0.49369182  0.29107942  0.50662162  1
  C  C1  1  0.00337581  0.20689726  0.99720057  1
  C  C2  1  0.50597101  0.80314409  0.47580331  1
  C  C3  1  0.00373409  0.69831371  0.98190947  1
  N  N4  1  0.59291240  0.21857105  0.55017189  1
  N  N5  1  0.37629700  0.26023793  0.43248610  1
  N  N6  1  0.12031274  0.24433120  0.91858469  1
  N  N7  1  0.89672261  0.27324590  0.04561762  1
  N  N8  1  0.61259028  0.75952474  0.55460543  1
  N  N9  1  0.39295426  0.74501898  0.42614033  1
  N  N10  1  0.11809910  0.75697071  0.92818746  1
  N  N11  1  0.89388356  0.74075353  0.06473583  1
  H  H12  1  0.51051948  0.38157256  0.53678754  1
  H  H13  1  0.68344843  0.24892734  0.60363568  1
  H  H14  1  0.58711858  0.13295115  0.52319140  1
  H  H15  1  0.30976529  0.32295968  0.39192860  1
  H  H16  1  0.37494108  0.17955746  0.37679858  1
  H  H17  1  0.99306079  0.11556964  0.02694999  1
  H  H18  1  0.19209891  0.18555258  0.87261274  1
  H  H19  1  0.11835971  0.32619507  0.86710245  1
  H  H20  1  0.80919680  0.23726066  0.10581996  1
  H  H21  1  0.89475550  0.35884491  0.01772809  1
  H  H22  1  0.51225190  0.89525415  0.44848517  1
  H  H23  1  0.69350686  0.81263374  0.59384600  1
  H  H24  1  0.61770578  0.67421621  0.58541805  1
  H  H25  1  0.31406715  0.78640365  0.36711391  1
  H  H26  1  0.37436982  0.65980901  0.45224358  1
  H  H27  1  -0.00013957  0.60618649  0.95466727  1
  H  H28  1  0.19877748  0.71543869  0.86592585  1
  H  H29  1  0.13559373  0.84226058  0.95264283  1
  H  H30  1  0.81272357  0.68623257  0.10683884  1
  H  H31  1  0.88692646  0.82567974  0.09744393  1
  P  P32  1  0.47606963  0.05709520  0.18749687  1
  P  P33  1  0.00554764  0.44511087  0.68734202  1
  Y  Y34  1  0.01273004  0.99067857  0.54051281  1
  Y  Y35  1  0.48024158  0.51016953  0.03186428  1
  I  I36  1  0.50100665  0.22922616  0.99830683  1
  I  I37  1  0.20660480  0.99740887  0.20537464  1
  I  I38  1  0.79348676  0.01183310  0.27665877  1
  I  I39  1  0.98790999  0.27109868  0.50166416  1
  I  I40  1  0.28935272  0.00783887  0.70432403  1
  I  I41  1  0.78580068  0.99453496  0.79065885  1
  I  I42  1  0.50235710  0.75698383  0.99265057  1
  I  I43  1  0.70663009  0.50135302  0.27010380  1
  I  I44  1  0.20727851  0.49389904  0.21764004  1
  I  I45  1  0.00511177  0.74378181  0.49716801  1
  I  I46  1  0.29572275  0.50981827  0.71450714  1
  I  I47  1  0.71457618  0.48763781  0.75458715  1
