# generated using pymatgen
data_MgH12PdC2(I3N)2
_symmetry_space_group_name_H-M   'P 1'
_cell_length_a   8.21617751
_cell_length_b   11.49249152
_cell_length_c   8.56886574
_cell_angle_alpha   91.69987856
_cell_angle_beta   90.00423562
_cell_angle_gamma   90.00144566
_symmetry_Int_Tables_number   1
_chemical_formula_structural   MgH12PdC2(I3N)2
_chemical_formula_sum   'Mg2 H24 Pd2 C4 I12 N4'
_cell_volume   808.75350761
_cell_formula_units_Z   2
loop_
 _symmetry_equiv_pos_site_id
 _symmetry_equiv_pos_as_xyz
  1  'x, y, z'
loop_
 _atom_site_type_symbol
 _atom_site_label
 _atom_site_symmetry_multiplicity
 _atom_site_fract_x
 _atom_site_fract_y
 _atom_site_fract_z
 _atom_site_occupancy
  C  C0  1  0.42530832  0.25450084  0.41746688  1
  C  C1  1  0.92570965  0.24550777  0.08261973  1
  C  C2  1  0.57468903  0.74550585  0.58254689  1
  C  C3  1  0.07429032  0.75449847  0.91738815  1
  N  N4  1  0.56104941  0.25377100  0.53132235  1
  N  N5  1  0.06132261  0.24617089  0.96864917  1
  N  N6  1  0.43894199  0.74623198  0.46869664  1
  N  N7  1  0.93867621  0.75382967  0.03135751  1
  H  H8  1  0.47602375  0.25017274  0.29927112  1
  H  H9  1  0.34809725  0.17882328  0.43654348  1
  H  H10  1  0.35583440  0.33490058  0.43533447  1
  H  H11  1  0.63029791  0.17858249  0.51398076  1
  H  H12  1  0.63819041  0.32403368  0.51398700  1
  H  H13  1  0.52211518  0.25756945  0.64719353  1
  H  H14  1  0.97665161  0.24997100  0.20077702  1
  H  H15  1  0.85626641  0.16508937  0.06501906  1
  H  H16  1  0.84846002  0.32115162  0.06353606  1
  H  H17  1  0.13842921  0.17591013  0.98590754  1
  H  H18  1  0.13055809  0.32134030  0.98577232  1
  H  H19  1  0.02215079  0.24230379  0.85275543  1
  H  H20  1  0.52397501  0.74983476  0.70074458  1
  H  H21  1  0.64416552  0.66510627  0.56468070  1
  H  H22  1  0.65189599  0.82118253  0.56346753  1
  H  H23  1  0.36969400  0.82142226  0.48603846  1
  H  H24  1  0.36180510  0.67597212  0.48603343  1
  H  H25  1  0.47787571  0.74243386  0.35282191  1
  H  H26  1  0.02335007  0.75002896  0.79923063  1
  H  H27  1  0.14372726  0.83492005  0.93498599  1
  H  H28  1  0.15154705  0.67885915  0.93647560  1
  H  H29  1  0.86156504  0.82408687  0.01409757  1
  H  H30  1  0.86944589  0.67865652  0.01423041  1
  H  H31  1  0.97784569  0.75769882  0.14725205  1
  Mg  Mg32  1  0.50010761  0.00000881  0.00014777  1
  Mg  Mg33  1  0.00013615  0.49996504  0.49983671  1
  Pd  Pd34  1  0.00000643  0.00000794  0.49998003  1
  Pd  Pd35  1  0.50000630  0.49999509  0.00003858  1
  I  I36  1  0.49166518  0.26977320  0.94315687  1
  I  I37  1  0.23358790  0.01163995  0.17420133  1
  I  I38  1  0.72133624  0.00635942  0.33141875  1
  I  I39  1  0.99144224  0.23022664  0.55690491  1
  I  I40  1  0.27860567  0.99364997  0.66855483  1
  I  I41  1  0.76639239  0.98836453  0.82577195  1
  I  I42  1  0.50832912  0.73022564  0.05687161  1
  I  I43  1  0.73357323  0.48827275  0.32578459  1
  I  I44  1  0.22132200  0.49363690  0.16855088  1
  I  I45  1  0.00854516  0.76978619  0.44310254  1
  I  I46  1  0.26641039  0.51173551  0.67428032  1
  I  I47  1  0.77860282  0.50636360  0.83151094  1
