# generated using pymatgen
data_CuPH10C2(I3N2)2
_symmetry_space_group_name_H-M   'P 1'
_cell_length_a   8.84829627
_cell_length_b   10.74339485
_cell_length_c   8.68225539
_cell_angle_alpha   89.08413649
_cell_angle_beta   90.00016674
_cell_angle_gamma   89.99822035
_symmetry_Int_Tables_number   1
_chemical_formula_structural   CuPH10C2(I3N2)2
_chemical_formula_sum   'Cu2 P2 H20 C4 I12 N8'
_cell_volume   825.23618576
_cell_formula_units_Z   2
loop_
 _symmetry_equiv_pos_site_id
 _symmetry_equiv_pos_as_xyz
  1  'x, y, z'
loop_
 _atom_site_type_symbol
 _atom_site_label
 _atom_site_symmetry_multiplicity
 _atom_site_fract_x
 _atom_site_fract_y
 _atom_site_fract_z
 _atom_site_occupancy
  C  C0  1  0.50264522  0.29041490  0.49632640  1
  C  C1  1  0.00254347  0.20959943  0.00364841  1
  C  C2  1  0.50562239  0.79110854  0.50052500  1
  C  C3  1  0.00566068  0.70887432  0.99947761  1
  N  N4  1  0.60096199  0.23610918  0.58816304  1
  N  N5  1  0.41347877  0.23389735  0.39970204  1
  N  N6  1  0.10086990  0.26392564  0.91182755  1
  N  N7  1  0.91348258  0.26608048  0.10038439  1
  N  N8  1  0.59398607  0.73526792  0.60110176  1
  N  N9  1  0.41057014  0.73596622  0.40819981  1
  N  N10  1  0.09407024  0.76472225  0.89894900  1
  N  N11  1  0.91054253  0.76401350  0.09174138  1
  H  H12  1  0.49285398  0.39129695  0.50154971  1
  H  H13  1  0.66409532  0.28867353  0.66118954  1
  H  H14  1  0.61556359  0.14192820  0.59555134  1
  H  H15  1  0.33918817  0.28609840  0.33493277  1
  H  H16  1  0.41377850  0.14001068  0.38394669  1
  H  H17  1  0.99265664  0.10873507  0.99828442  1
  H  H18  1  0.16389709  0.21136897  0.83868103  1
  H  H19  1  0.11557421  0.35808877  0.90456418  1
  H  H20  1  0.83916848  0.21388345  0.16511485  1
  H  H21  1  0.91384318  0.35997192  0.11625198  1
  H  H22  1  0.51320102  0.89217999  0.49213793  1
  H  H23  1  0.66302411  0.78865530  0.66849784  1
  H  H24  1  0.59442241  0.64127901  0.61998772  1
  H  H25  1  0.34690269  0.78936342  0.33414531  1
  H  H26  1  0.39352521  0.64189876  0.40581854  1
  H  H27  1  0.01325458  0.60781486  0.00788152  1
  H  H28  1  0.16316963  0.71132907  0.83160756  1
  H  H29  1  0.09450404  0.85870703  0.88004873  1
  H  H30  1  0.84682952  0.71062661  0.16573909  1
  H  H31  1  0.89347534  0.85809688  0.09409427  1
  P  P32  1  0.47754271  0.97293956  0.99148637  1
  P  P33  1  0.97765043  0.52711394  0.50852325  1
  Cu  Cu34  1  0.86750988  0.01935395  0.51732394  1
  Cu  Cu35  1  0.36769416  0.48076792  0.98272111  1
  I  I36  1  0.53633049  0.29183505  0.99842240  1
  I  I37  1  0.25064038  0.98874594  0.18571031  1
  I  I38  1  0.71226103  0.00945506  0.26756508  1
  I  I39  1  0.03642015  0.20807156  0.50153920  1
  I  I40  1  0.31422608  0.01121165  0.74525669  1
  I  I41  1  0.77452073  0.98294346  0.79550299  1
  I  I42  1  0.50299114  0.73391940  0.00242115  1
  I  I43  1  0.75071190  0.51129454  0.31427349  1
  I  I44  1  0.21230598  0.49052614  0.23244033  1
  I  I45  1  0.00299408  0.76607707  0.49760984  1
  I  I46  1  0.27457677  0.51701465  0.70450369  1
  I  I47  1  0.81428175  0.48880646  0.75473348  1
