# generated using pymatgen
data_CaH10PbC2(I3N2)2
_symmetry_space_group_name_H-M   'P 1'
_cell_length_a   8.68021445
_cell_length_b   12.34783179
_cell_length_c   8.67401828
_cell_angle_alpha   90.01826335
_cell_angle_beta   90.00009886
_cell_angle_gamma   89.99805608
_symmetry_Int_Tables_number   1
_chemical_formula_structural   CaH10PbC2(I3N2)2
_chemical_formula_sum   'Ca2 H20 Pb2 C4 I12 N8'
_cell_volume   929.69708808
_cell_formula_units_Z   2
loop_
 _symmetry_equiv_pos_site_id
 _symmetry_equiv_pos_as_xyz
  1  'x, y, z'
loop_
 _atom_site_type_symbol
 _atom_site_label
 _atom_site_symmetry_multiplicity
 _atom_site_fract_x
 _atom_site_fract_y
 _atom_site_fract_z
 _atom_site_occupancy
  C  C0  1  0.49276616  0.28904462  0.49644967  1
  C  C1  1  0.99284108  0.21094004  0.00357843  1
  C  C2  1  0.50724886  0.78905906  0.50349427  1
  C  C3  1  0.00715606  0.71094663  0.99647192  1
  N  N4  1  0.58998554  0.24041330  0.58941009  1
  N  N5  1  0.39894545  0.24019672  0.40033342  1
  N  N6  1  0.09010237  0.25957334  0.91065804  1
  N  N7  1  0.89899254  0.25978426  0.09966520  1
  N  N8  1  0.60077167  0.74021049  0.59994573  1
  N  N9  1  0.41034620  0.74042657  0.41024527  1
  N  N10  1  0.10071511  0.75980119  0.90006050  1
  N  N11  1  0.91022035  0.75957572  0.08968690  1
  H  H12  1  0.48942679  0.37732517  0.49967257  1
  H  H13  1  0.65857806  0.28552596  0.66010844  1
  H  H14  1  0.60049459  0.15819361  0.59454340  1
  H  H15  1  0.32741546  0.28563914  0.33282222  1
  H  H16  1  0.39400769  0.15800727  0.38894763  1
  H  H17  1  0.98950167  0.12266005  0.00033424  1
  H  H18  1  0.15873379  0.21445757  0.83999529  1
  H  H19  1  0.10064547  0.34179194  0.90556817  1
  H  H20  1  0.82743255  0.21434062  0.16713994  1
  H  H21  1  0.89405106  0.34197241  0.11106436  1
  H  H22  1  0.51060952  0.87733786  0.50031983  1
  H  H23  1  0.67198592  0.78565556  0.66780504  1
  H  H24  1  0.60664914  0.65799133  0.61034010  1
  H  H25  1  0.34207630  0.78553381  0.33925499  1
  H  H26  1  0.39885965  0.65824280  0.40605043  1
  H  H27  1  0.01052201  0.62266789  0.99962617  1
  H  H28  1  0.17195767  0.71436655  0.83221808  1
  H  H29  1  0.10658785  0.84202634  0.88968676  1
  H  H30  1  0.84190728  0.71446090  0.16062764  1
  H  H31  1  0.89870219  0.84175279  0.09386838  1
  Ca  Ca32  1  0.50011350  0.99989227  0.99911355  1
  Ca  Ca33  1  0.00011628  0.50014035  0.50091581  1
  Pb  Pb34  1  0.00036276  0.00015341  0.49884911  1
  Pb  Pb35  1  0.50035574  0.49988004  0.00116758  1
  I  I36  1  0.49772038  0.24615220  0.99272158  1
  I  I37  1  0.20060830  0.98474577  0.19246492  1
  I  I38  1  0.69174397  0.02211060  0.29963529  1
  I  I39  1  0.99770495  0.25387608  0.50734666  1
  I  I40  1  0.30642758  0.01509353  0.69959680  1
  I  I41  1  0.80062815  0.97807286  0.80712978  1
  I  I42  1  0.50230456  0.75371823  0.00713244  1
  I  I43  1  0.70058422  0.51521568  0.30756967  1
  I  I44  1  0.19172090  0.47792017  0.20036721  1
  I  I45  1  0.00232792  0.74630935  0.49280183  1
  I  I46  1  0.30064707  0.52197483  0.69287066  1
  I  I47  1  0.80641700  0.48488614  0.80042871  1
