# generated using pymatgen
data_CaHgH10C2(I3N2)2
_symmetry_space_group_name_H-M   'P 1'
_cell_length_a   8.66413865
_cell_length_b   11.85300297
_cell_length_c   8.65835955
_cell_angle_alpha   90.05849737
_cell_angle_beta   89.99969141
_cell_angle_gamma   89.99889809
_symmetry_Int_Tables_number   1
_chemical_formula_structural   CaHgH10C2(I3N2)2
_chemical_formula_sum   'Ca2 Hg2 H20 C4 I12 N8'
_cell_volume   889.17895761
_cell_formula_units_Z   2
loop_
 _symmetry_equiv_pos_site_id
 _symmetry_equiv_pos_as_xyz
  1  'x, y, z'
loop_
 _atom_site_type_symbol
 _atom_site_label
 _atom_site_symmetry_multiplicity
 _atom_site_fract_x
 _atom_site_fract_y
 _atom_site_fract_z
 _atom_site_occupancy
  C  C0  1  0.49330903  0.28899667  0.49614568  1
  C  C1  1  0.99337804  0.21099080  0.00387166  1
  C  C2  1  0.50667158  0.78899414  0.50392572  1
  C  C3  1  0.00660796  0.71101005  0.99604654  1
  N  N4  1  0.59115794  0.23906106  0.58945411  1
  N  N5  1  0.39892687  0.23829785  0.40006634  1
  N  N6  1  0.09125400  0.26092709  0.91060214  1
  N  N7  1  0.89897521  0.26168679  0.09994431  1
  N  N8  1  0.60009363  0.73829120  0.60086776  1
  N  N9  1  0.40965857  0.73910264  0.40969547  1
  N  N10  1  0.10004632  0.76172143  0.89913230  1
  N  N11  1  0.90956327  0.76090114  0.09026072  1
  H  H12  1  0.48980687  0.38089369  0.49900531  1
  H  H13  1  0.65895064  0.28741144  0.65986831  1
  H  H14  1  0.60376975  0.15354391  0.59570619  1
  H  H15  1  0.32817716  0.28659189  0.33245205  1
  H  H16  1  0.39184287  0.15269518  0.38840883  1
  H  H17  1  0.98986348  0.11909390  0.00099016  1
  H  H18  1  0.15906615  0.21257940  0.84019979  1
  H  H19  1  0.10389421  0.34644570  0.90438997  1
  H  H20  1  0.82820290  0.21339094  0.16752896  1
  H  H21  1  0.89190002  0.34728941  0.11161303  1
  H  H22  1  0.51038697  0.88090222  0.50124734  1
  H  H23  1  0.67103058  0.78659270  0.66841114  1
  H  H24  1  0.60640595  0.65271622  0.61301572  1
  H  H25  1  0.34176858  0.78741853  0.33947443  1
  H  H26  1  0.39750644  0.65354149  0.40270422  1
  H  H27  1  0.01032504  0.61910720  0.99871947  1
  H  H28  1  0.17100622  0.71342372  0.83160014  1
  H  H29  1  0.10635719  0.84730098  0.88699622  1
  H  H30  1  0.84165693  0.71257806  0.16045053  1
  H  H31  1  0.89738613  0.84645823  0.09724049  1
  Ca  Ca32  1  0.49995345  0.99993747  0.99840391  1
  Ca  Ca33  1  0.99994917  0.50008629  0.50161309  1
  Hg  Hg34  1  0.00197067  0.00010745  0.49756945  1
  Hg  Hg35  1  0.50196152  0.49991514  0.00243645  1
  I  I36  1  0.49675712  0.26073279  0.99369249  1
  I  I37  1  0.20910773  0.98716827  0.20202564  1
  I  I38  1  0.70412464  0.01571815  0.28870465  1
  I  I39  1  0.99670823  0.23928364  0.50636841  1
  I  I40  1  0.29630162  0.01338677  0.70762956  1
  I  I41  1  0.79029407  0.98381320  0.79416112  1
  I  I42  1  0.50205057  0.73924706  0.00588715  1
  I  I43  1  0.70909472  0.51282989  0.29798580  1
  I  I44  1  0.20411124  0.48430326  0.21129800  1
  I  I45  1  0.00209626  0.76077375  0.49406825  1
  I  I46  1  0.29030021  0.51620365  0.70584430  1
  I  I47  1  0.79629158  0.48660049  0.79238146  1
