# generated using pymatgen
data_CaH10PtC2(I3N2)2
_symmetry_space_group_name_H-M   'P 1'
_cell_length_a   8.52089530
_cell_length_b   11.27865152
_cell_length_c   9.07631639
_cell_angle_alpha   90.31336292
_cell_angle_beta   89.99475622
_cell_angle_gamma   89.98935667
_symmetry_Int_Tables_number   1
_chemical_formula_structural   CaH10PtC2(I3N2)2
_chemical_formula_sum   'Ca2 H20 Pt2 C4 I12 N8'
_cell_volume   872.25914025
_cell_formula_units_Z   2
loop_
 _symmetry_equiv_pos_site_id
 _symmetry_equiv_pos_as_xyz
  1  'x, y, z'
loop_
 _atom_site_type_symbol
 _atom_site_label
 _atom_site_symmetry_multiplicity
 _atom_site_fract_x
 _atom_site_fract_y
 _atom_site_fract_z
 _atom_site_occupancy
  C  C0  1  0.48135032  0.28922746  0.48367074  1
  C  C1  1  0.98173183  0.21082712  0.01623800  1
  C  C2  1  0.51362164  0.79151519  0.51890465  1
  C  C3  1  0.01332219  0.70847329  0.98109943  1
  N  N4  1  0.56481643  0.24208403  0.58945904  1
  N  N5  1  0.39665981  0.23088837  0.38631920  1
  N  N6  1  0.06529146  0.25799828  0.91053615  1
  N  N7  1  0.89736914  0.26916165  0.11388123  1
  N  N8  1  0.59801283  0.73242092  0.61414575  1
  N  N9  1  0.42991765  0.74534632  0.41130230  1
  N  N10  1  0.09747868  0.76750237  0.88558896  1
  N  N11  1  0.92964523  0.75472554  0.08868563  1
  H  H12  1  0.48339583  0.38561862  0.47470008  1
  H  H13  1  0.62618109  0.29637988  0.65962052  1
  H  H14  1  0.57365050  0.15288092  0.60679929  1
  H  H15  1  0.33840779  0.27743578  0.30698151  1
  H  H16  1  0.38009885  0.14119798  0.38755129  1
  H  H17  1  0.98339014  0.11440349  0.02480538  1
  H  H18  1  0.12643133  0.20370284  0.84015662  1
  H  H19  1  0.07454555  0.34722381  0.89351378  1
  H  H20  1  0.83895315  0.22257541  0.19306952  1
  H  H21  1  0.88116617  0.35889408  0.11295331  1
  H  H22  1  0.51251061  0.88777436  0.53096652  1
  H  H23  1  0.66007397  0.77954335  0.69162246  1
  H  H24  1  0.60655869  0.64209233  0.61517994  1
  H  H25  1  0.36582494  0.79952990  0.34398087  1
  H  H26  1  0.42870318  0.65656932  0.38912520  1
  H  H27  1  0.01243574  0.61218857  0.96927007  1
  H  H28  1  0.15954955  0.72032941  0.80816384  1
  H  H29  1  0.10575941  0.85783906  0.88430395  1
  H  H30  1  0.86579819  0.70056538  0.15623154  1
  H  H31  1  0.92828215  0.84352132  0.11066622  1
  Ca  Ca32  1  0.54965676  0.98958599  0.04801756  1
  Ca  Ca33  1  0.04968714  0.51024586  0.45224194  1
  Pt  Pt34  1  0.01091949  0.01546799  0.49074473  1
  Pt  Pt35  1  0.51098415  0.48449319  0.00935849  1
  I  I36  1  0.47611142  0.25373664  0.98277632  1
  I  I37  1  0.23132735  0.98026232  0.17901265  1
  I  I38  1  0.74987204  0.01212186  0.32409881  1
  I  I39  1  0.97593671  0.24620124  0.51767331  1
  I  I40  1  0.25011924  0.02321570  0.67336255  1
  I  I41  1  0.76171410  0.98879121  0.79433691  1
  I  I42  1  0.50960519  0.71892152  0.00422919  1
  I  I43  1  0.73150049  0.51965694  0.32091197  1
  I  I44  1  0.24990462  0.48815078  0.17602104  1
  I  I45  1  0.00960476  0.78102075  0.49536130  1
  I  I46  1  0.26191627  0.51122570  0.70571096  1
  I  I47  1  0.75022554  0.47652893  0.82675401  1
