# generated using pymatgen
data_CaH10OsC2(I3N2)2
_symmetry_space_group_name_H-M   'P 1'
_cell_length_a   8.33076694
_cell_length_b   11.50223814
_cell_length_c   8.32268041
_cell_angle_alpha   90.04153709
_cell_angle_beta   89.99991850
_cell_angle_gamma   89.99799468
_symmetry_Int_Tables_number   1
_chemical_formula_structural   CaH10OsC2(I3N2)2
_chemical_formula_sum   'Ca2 H20 Os2 C4 I12 N8'
_cell_volume   797.49954480
_cell_formula_units_Z   2
loop_
 _symmetry_equiv_pos_site_id
 _symmetry_equiv_pos_as_xyz
  1  'x, y, z'
loop_
 _atom_site_type_symbol
 _atom_site_label
 _atom_site_symmetry_multiplicity
 _atom_site_fract_x
 _atom_site_fract_y
 _atom_site_fract_z
 _atom_site_occupancy
  C  C0  1  0.49383331  0.28978123  0.49635062  1
  C  C1  1  0.99389564  0.21021014  0.00366358  1
  C  C2  1  0.50610881  0.78978652  0.50396288  1
  C  C3  1  0.00603530  0.71022023  0.99601858  1
  N  N4  1  0.59489031  0.23813366  0.59338980  1
  N  N5  1  0.39654703  0.23720757  0.39652157  1
  N  N6  1  0.09498459  0.26185688  0.90666348  1
  N  N7  1  0.89659474  0.26278344  0.10348753  1
  N  N8  1  0.60334028  0.73722181  0.60380468  1
  N  N9  1  0.40536345  0.73812960  0.40656100  1
  N  N10  1  0.10328957  0.76278970  0.89619841  1
  N  N11  1  0.90526770  0.76187231  0.09339570  1
  H  H12  1  0.49005695  0.38445505  0.49918262  1
  H  H13  1  0.66500627  0.28770737  0.66730452  1
  H  H14  1  0.60943429  0.15008628  0.59825714  1
  H  H15  1  0.32312316  0.28657925  0.32557014  1
  H  H16  1  0.38729525  0.14894993  0.38663777  1
  H  H17  1  0.99010219  0.11553777  0.00080414  1
  H  H18  1  0.16511201  0.21228191  0.83275439  1
  H  H19  1  0.10955730  0.34990271  0.90183476  1
  H  H20  1  0.82315126  0.21341213  0.17441131  1
  H  H21  1  0.88735351  0.35104127  0.11338861  1
  H  H22  1  0.50967511  0.88446710  0.50148129  1
  H  H23  1  0.67777979  0.78662935  0.67375620  1
  H  H24  1  0.60832366  0.64909369  0.61777841  1
  H  H25  1  0.33423286  0.78767322  0.33370014  1
  H  H26  1  0.39509566  0.64993882  0.39716683  1
  H  H27  1  0.00961007  0.61553960  0.99848705  1
  H  H28  1  0.17774581  0.71338535  0.82625973  1
  H  H29  1  0.10827069  0.85091675  0.88224156  1
  H  H30  1  0.83411551  0.71232320  0.16623188  1
  H  H31  1  0.89497231  0.85006257  0.10278924  1
  Ca  Ca32  1  0.49857272  -0.00000564  0.99860315  1
  Ca  Ca33  1  0.99857601  0.50002219  0.50141565  1
  Os  Os34  1  0.00019962  0.00000479  0.49859645  1
  Os  Os35  1  0.50019412  0.50000858  0.00140970  1
  I  I36  1  0.49791656  0.26260406  0.99636892  1
  I  I37  1  0.19496166  0.98952188  0.23174692  1
  I  I38  1  0.73441826  0.01055474  0.30233394  1
  I  I39  1  0.99787015  0.23741063  0.50368644  1
  I  I40  1  0.26707462  0.01145028  0.69299033  1
  I  I41  1  0.80461252  0.98843316  0.76478957  1
  I  I42  1  0.50218083  0.73742968  0.00448827  1
  I  I43  1  0.69495690  0.51047834  0.26825995  1
  I  I44  1  0.23440478  0.48947327  0.19766706  1
  I  I45  1  0.00223479  0.76258404  0.49546707  1
  I  I46  1  0.30461600  0.51158203  0.73521087  1
  I  I47  1  0.76706539  0.48853450  0.80701488  1
