# generated using pymatgen
data_BaCaH10C2(I3N2)2
_symmetry_space_group_name_H-M   'P 1'
_cell_length_a   8.85202201
_cell_length_b   12.60221010
_cell_length_c   8.84829996
_cell_angle_alpha   89.88746729
_cell_angle_beta   90.00025516
_cell_angle_gamma   89.99646913
_symmetry_Int_Tables_number   1
_chemical_formula_structural   BaCaH10C2(I3N2)2
_chemical_formula_sum   'Ba2 Ca2 H20 C4 I12 N8'
_cell_volume   987.07056042
_cell_formula_units_Z   2
loop_
 _symmetry_equiv_pos_site_id
 _symmetry_equiv_pos_as_xyz
  1  'x, y, z'
loop_
 _atom_site_type_symbol
 _atom_site_label
 _atom_site_symmetry_multiplicity
 _atom_site_fract_x
 _atom_site_fract_y
 _atom_site_fract_z
 _atom_site_occupancy
  C  C0  1  0.49457882  0.28612281  0.49658233  1
  C  C1  1  0.99455625  0.21398728  0.00341131  1
  C  C2  1  0.50523261  0.78598691  0.50322915  1
  C  C3  1  0.00513664  0.71390352  0.99680068  1
  N  N4  1  0.59043601  0.23943627  0.58852135  1
  N  N5  1  0.40320521  0.23724310  0.40268270  1
  N  N6  1  0.09046057  0.26066912  0.91150096  1
  N  N7  1  0.90321666  0.26287273  0.09732468  1
  N  N8  1  0.59633858  0.73704423  0.59757183  1
  N  N9  1  0.40999261  0.73934600  0.41083889  1
  N  N10  1  0.09625990  0.76284470  0.90247031  1
  N  N11  1  0.90990289  0.76054342  0.08919333  1
  H  H12  1  0.49035509  0.37270120  0.49853046  1
  H  H13  1  0.65821786  0.28449205  0.65611340  1
  H  H14  1  0.59965314  0.15886321  0.59733166  1
  H  H15  1  0.33155124  0.28091081  0.33701192  1
  H  H16  1  0.40174049  0.15667893  0.39008002  1
  H  H17  1  0.99027236  0.12741106  0.00140107  1
  H  H18  1  0.15823029  0.21560914  0.84388032  1
  H  H19  1  0.09975279  0.34125220  0.90274478  1
  H  H20  1  0.83153909  0.21921562  0.16296531  1
  H  H21  1  0.90181710  0.34342398  0.10998272  1
  H  H22  1  0.50906467  0.87257609  0.50132046  1
  H  H23  1  0.66502218  0.78071686  0.66609864  1
  H  H24  1  0.60369154  0.65629070  0.60468845  1
  H  H25  1  0.34494602  0.78439750  0.34035870  1
  H  H26  1  0.39568990  0.65893922  0.40752482  1
  H  H27  1  0.00894816  0.62731416  0.99868688  1
  H  H28  1  0.16494606  0.71916658  0.83392787  1
  H  H29  1  0.10363307  0.84360284  0.89537234  1
  H  H30  1  0.84485573  0.71549099  0.15965143  1
  H  H31  1  0.89562440  0.84094704  0.09252436  1
  Ca  Ca32  1  0.49995702  0.00000169  0.99754037  1
  Ca  Ca33  1  0.99997331  0.50000982  0.50243012  1
  Ba  Ba34  1  0.00063840  0.00003154  0.49711234  1
  Ba  Ba35  1  0.50065444  0.49998106  0.00285406  1
  I  I36  1  0.49839996  0.23963108  0.99462119  1
  I  I37  1  0.20605899  0.98530552  0.18249558  1
  I  I38  1  0.68517749  0.01784939  0.29179812  1
  I  I39  1  0.99840397  0.26038343  0.50537262  1
  I  I40  1  0.31468188  0.01398017  0.70384185  1
  I  I41  1  0.79382649  0.98285532  0.81195624  1
  I  I42  1  0.50175118  0.76040368  0.00412705  1
  I  I43  1  0.70614021  0.51472481  0.31740345  1
  I  I44  1  0.18526119  0.48216254  0.20823389  1
  I  I45  1  0.00184200  0.73960384  0.49585465  1
  I  I46  1  0.29376862  0.51712004  0.68809035  1
  I  I47  1  0.81461629  0.48601876  0.79604970  1
