# generated using pymatgen
data_CaSnH10C2(I3N2)2
_symmetry_space_group_name_H-M   'P 1'
_cell_length_a   8.65243348
_cell_length_b   12.25917227
_cell_length_c   8.64612401
_cell_angle_alpha   90.01221051
_cell_angle_beta   90.00021617
_cell_angle_gamma   89.99863986
_symmetry_Int_Tables_number   1
_chemical_formula_structural   CaSnH10C2(I3N2)2
_chemical_formula_sum   'Ca2 Sn2 H20 C4 I12 N8'
_cell_volume   917.10881438
_cell_formula_units_Z   2
loop_
 _symmetry_equiv_pos_site_id
 _symmetry_equiv_pos_as_xyz
  1  'x, y, z'
loop_
 _atom_site_type_symbol
 _atom_site_label
 _atom_site_symmetry_multiplicity
 _atom_site_fract_x
 _atom_site_fract_y
 _atom_site_fract_z
 _atom_site_occupancy
  C  C0  1  0.49286092  0.28900214  0.49638195  1
  C  C1  1  0.99292690  0.21098335  0.00365060  1
  C  C2  1  0.50717788  0.78901638  0.50359118  1
  C  C3  1  0.00708301  0.71098929  0.99638718  1
  N  N4  1  0.59040847  0.24015390  0.58975974  1
  N  N5  1  0.39876623  0.23982918  0.39983728  1
  N  N6  1  0.09052440  0.25983705  0.91029999  1
  N  N7  1  0.89881615  0.26015125  0.10015908  1
  N  N8  1  0.60101657  0.73985058  0.60034027  1
  N  N9  1  0.40981130  0.74016205  0.40998173  1
  N  N10  1  0.10097248  0.76016207  0.89965539  1
  N  N11  1  0.90970114  0.75984160  0.08995034  1
  H  H12  1  0.48940899  0.37792541  0.49956660  1
  H  H13  1  0.65900132  0.28581496  0.66063421  1
  H  H14  1  0.60149255  0.15735424  0.59498741  1
  H  H15  1  0.32716361  0.28575299  0.33210805  1
  H  H16  1  0.39339715  0.15702826  0.38845228  1
  H  H17  1  0.98947847  0.12206085  0.00043929  1
  H  H18  1  0.15914570  0.21417360  0.83946470  1
  H  H19  1  0.10163607  0.34263212  0.90512116  1
  H  H20  1  0.82718072  0.21422624  0.16785934  1
  H  H21  1  0.89344450  0.34295340  0.11156029  1
  H  H22  1  0.51066055  0.87793990  0.50041397  1
  H  H23  1  0.67244595  0.78577299  0.66828501  1
  H  H24  1  0.60685766  0.65703553  0.61121879  1
  H  H25  1  0.34145125  0.78582328  0.33890209  1
  H  H26  1  0.39824527  0.65737856  0.40520194  1
  H  H27  1  0.01057608  0.62206687  0.99954109  1
  H  H28  1  0.17241276  0.71424393  0.83174169  1
  H  H29  1  0.10680487  0.84297421  0.88880052  1
  H  H30  1  0.84128931  0.71417531  0.16099530  1
  H  H31  1  0.89810005  0.84262515  0.09471970  1
  Ca  Ca32  1  0.50000086  0.99991720  0.99901503  1
  Ca  Ca33  1  0.00000207  0.50011074  0.50101167  1
  Sn  Sn34  1  0.00073926  0.00012181  0.49878309  1
  Sn  Sn35  1  0.50073154  0.49990606  0.00123244  1
  I  I36  1  0.49768653  0.24830698  0.99313548  1
  I  I37  1  0.20072595  0.98552675  0.19638961  1
  I  I38  1  0.69623736  0.02048425  0.29880734  1
  I  I39  1  0.99766569  0.25171704  0.50692889  1
  I  I40  1  0.30232446  0.01440083  0.69959891  1
  I  I41  1  0.79992474  0.97963997  0.80246969  1
  I  I42  1  0.50226625  0.75160988  0.00667790  1
  I  I43  1  0.70070563  0.51444694  0.30363907  1
  I  I44  1  0.19621413  0.47954181  0.20119425  1
  I  I45  1  0.00228235  0.74841395  0.49325848  1
  I  I46  1  0.29994153  0.52039892  0.69753135  1
  I  I47  1  0.80231272  0.48558325  0.80042340  1
