# generated using pymatgen
data_CaCdH10C2(I3N2)2
_symmetry_space_group_name_H-M   'P 1'
_cell_length_a   8.57200864
_cell_length_b   11.92222780
_cell_length_c   8.56549738
_cell_angle_alpha   90.01199345
_cell_angle_beta   89.99994143
_cell_angle_gamma   89.99839577
_symmetry_Int_Tables_number   1
_chemical_formula_structural   CaCdH10C2(I3N2)2
_chemical_formula_sum   'Ca2 Cd2 H20 C4 I12 N8'
_cell_volume   875.37188235
_cell_formula_units_Z   2
loop_
 _symmetry_equiv_pos_site_id
 _symmetry_equiv_pos_as_xyz
  1  'x, y, z'
loop_
 _atom_site_type_symbol
 _atom_site_label
 _atom_site_symmetry_multiplicity
 _atom_site_fract_x
 _atom_site_fract_y
 _atom_site_fract_z
 _atom_site_occupancy
  C  C0  1  0.49333081  0.28889763  0.49625419  1
  C  C1  1  0.99339919  0.21109094  0.00376189  1
  C  C2  1  0.50666925  0.78891293  0.50384545  1
  C  C3  1  0.00659916  0.71109530  0.99612837  1
  N  N4  1  0.59182339  0.23903440  0.59067921  1
  N  N5  1  0.39838123  0.23838680  0.39897703  1
  N  N6  1  0.09192246  0.26095450  0.90937694  1
  N  N7  1  0.89842832  0.26159730  0.10102681  1
  N  N8  1  0.60129183  0.73840181  0.60140097  1
  N  N9  1  0.40846261  0.73904437  0.40908721  1
  N  N10  1  0.10124534  0.76161070  0.89860268  1
  N  N11  1  0.90836330  0.76095853  0.09086450  1
  H  H12  1  0.48979656  0.38025485  0.49914996  1
  H  H13  1  0.66031188  0.28665386  0.66222966  1
  H  H14  1  0.60450687  0.15401600  0.59616860  1
  H  H15  1  0.32680216  0.28603865  0.33034865  1
  H  H16  1  0.39117980  0.15326492  0.38806050  1
  H  H17  1  0.98985516  0.11973353  0.00084293  1
  H  H18  1  0.16043551  0.21333587  0.83784396  1
  H  H19  1  0.10463722  0.34597242  0.90392887  1
  H  H20  1  0.82682598  0.21394511  0.16962573  1
  H  H21  1  0.89123223  0.34671909  0.11195898  1
  H  H22  1  0.51023650  0.88026890  0.50098367  1
  H  H23  1  0.67341114  0.78605427  0.66949897  1
  H  H24  1  0.60704576  0.65332966  0.61371134  1
  H  H25  1  0.33949108  0.78666085  0.33803154  1
  H  H26  1  0.39719055  0.65397950  0.40213262  1
  H  H27  1  0.01017126  0.61973775  0.99897696  1
  H  H28  1  0.17338468  0.71396358  0.83051755  1
  H  H29  1  0.10699594  0.84668280  0.88630835  1
  H  H30  1  0.83936458  0.71333615  0.16188525  1
  H  H31  1  0.89706206  0.84602188  0.09781114  1
  Ca  Ca32  1  0.49956360  0.99994547  0.99857463  1
  Ca  Ca33  1  0.99956173  0.50007718  0.50144752  1
  Cd  Cd34  1  0.00088662  0.00009550  0.49849881  1
  Cd  Cd35  1  0.50087919  0.49992856  0.00151402  1
  I  I36  1  0.49761509  0.25630212  0.99446984  1
  I  I37  1  0.20385436  0.98783574  0.20780679  1
  I  I38  1  0.70941342  0.01550458  0.29436536  1
  I  I39  1  0.99757710  0.24371526  0.50558158  1
  I  I40  1  0.29085559  0.01257997  0.70241907  1
  I  I41  1  0.79591690  0.98412350  0.78923222  1
  I  I42  1  0.50199731  0.74367087  0.00566510  1
  I  I43  1  0.70384041  0.51215651  0.29221076  1
  I  I44  1  0.20939776  0.48451815  0.20563567  1
  I  I45  1  0.00203669  0.75634906  0.49429206  1
  I  I46  1  0.29592424  0.51589759  0.71077371  1
  I  I47  1  0.79084553  0.48740808  0.79759713  1
