# generated using pymatgen
data_SrCaH10C2(I3N2)2
_symmetry_space_group_name_H-M   'P 1'
_cell_length_a   8.70296430
_cell_length_b   12.38368549
_cell_length_c   8.69670652
_cell_angle_alpha   89.99757158
_cell_angle_beta   90.00028639
_cell_angle_gamma   89.99879039
_symmetry_Int_Tables_number   1
_chemical_formula_structural   SrCaH10C2(I3N2)2
_chemical_formula_sum   'Sr2 Ca2 H20 C4 I12 N8'
_cell_volume   937.28556817
_cell_formula_units_Z   2
loop_
 _symmetry_equiv_pos_site_id
 _symmetry_equiv_pos_as_xyz
  1  'x, y, z'
loop_
 _atom_site_type_symbol
 _atom_site_label
 _atom_site_symmetry_multiplicity
 _atom_site_fract_x
 _atom_site_fract_y
 _atom_site_fract_z
 _atom_site_occupancy
  C  C0  1  0.49275492  0.28901130  0.49650061  1
  C  C1  1  0.99283526  0.21097392  0.00352394  1
  C  C2  1  0.50725405  0.78902106  0.50346782  1
  C  C3  1  0.00716083  0.71098193  0.99649528  1
  N  N4  1  0.58966887  0.24046840  0.58925718  1
  N  N5  1  0.39916923  0.24029706  0.40057664  1
  N  N6  1  0.08978936  0.25951700  0.91081181  1
  N  N7  1  0.89921387  0.25968437  0.09942168  1
  N  N8  1  0.60061566  0.74030990  0.59961105  1
  N  N9  1  0.41055775  0.74048296  0.41048882  1
  N  N10  1  0.10055689  0.75970450  0.90039637  1
  N  N11  1  0.91042535  0.75951605  0.08944383  1
  H  H12  1  0.48944596  0.37705480  0.49969256  1
  H  H13  1  0.65810459  0.28538672  0.65980642  1
  H  H14  1  0.59994298  0.15846438  0.59432452  1
  H  H15  1  0.32777148  0.28556410  0.33319958  1
  H  H16  1  0.39443415  0.15831593  0.38921466  1
  H  H17  1  0.98952197  0.12293198  0.00031495  1
  H  H18  1  0.15826173  0.21459750  0.84030394  1
  H  H19  1  0.10009730  0.34152000  0.90578740  1
  H  H20  1  0.82778782  0.21441423  0.16676187  1
  H  H21  1  0.89447651  0.34166625  0.11079601  1
  H  H22  1  0.51053146  0.87706704  0.50028042  1
  H  H23  1  0.67168695  0.78556245  0.66730391  1
  H  H24  1  0.60651756  0.65829539  0.60982058  1
  H  H25  1  0.34238754  0.78541569  0.33965632  1
  H  H26  1  0.39915789  0.65851048  0.40655337  1
  H  H27  1  0.01044042  0.62293826  0.99966388  1
  H  H28  1  0.17165591  0.71446053  0.83272447  1
  H  H29  1  0.10645545  0.84172408  0.89020797  1
  H  H30  1  0.84220972  0.71458120  0.16022421  1
  H  H31  1  0.89900127  0.84148444  0.09335931  1
  Ca  Ca32  1  0.49998725  0.99987989  0.99906302  1
  Ca  Ca33  1  -0.00000863  0.50015261  0.50096770  1
  Sr  Sr34  1  0.99998256  0.00015328  0.49893263  1
  Sr  Sr35  1  0.49997474  0.49987914  0.00108661  1
  I  I36  1  0.49786591  0.24498524  0.99270355  1
  I  I37  1  0.20137207  0.98480787  0.19092891  1
  I  I38  1  0.69008943  0.02240630  0.29948659  1
  I  I39  1  0.99785470  0.25504374  0.50736684  1
  I  I40  1  0.30805943  0.01498357  0.70034046  1
  I  I41  1  0.80048319  0.97779739  0.80886624  1
  I  I42  1  0.50224364  0.75485429  0.00726773  1
  I  I43  1  0.70134703  0.51514967  0.30910739  1
  I  I44  1  0.19006715  0.47762460  0.20051381  1
  I  I45  1  0.00225763  0.74517364  0.49266236  1
  I  I46  1  0.30050361  0.52225095  0.69113396  1
  I  I47  1  0.80804892  0.48499687  0.79968560  1
