# generated using pymatgen
data_CaGeH10C2(I3N2)2
_symmetry_space_group_name_H-M   'P 1'
_cell_length_a   8.56237118
_cell_length_b   11.97507763
_cell_length_c   8.55530125
_cell_angle_alpha   90.03272945
_cell_angle_beta   90.00002575
_cell_angle_gamma   89.99864919
_symmetry_Int_Tables_number   1
_chemical_formula_structural   CaGeH10C2(I3N2)2
_chemical_formula_sum   'Ca2 Ge2 H20 C4 I12 N8'
_cell_volume   877.21818023
_cell_formula_units_Z   2
loop_
 _symmetry_equiv_pos_site_id
 _symmetry_equiv_pos_as_xyz
  1  'x, y, z'
loop_
 _atom_site_type_symbol
 _atom_site_label
 _atom_site_symmetry_multiplicity
 _atom_site_fract_x
 _atom_site_fract_y
 _atom_site_fract_z
 _atom_site_occupancy
  C  C0  1  0.49344527  0.28869700  0.49628728  1
  C  C1  1  0.99351208  0.21129013  0.00372196  1
  C  C2  1  0.50650137  0.78867962  0.50378892  1
  C  C3  1  0.00643493  0.71132637  0.99619018  1
  N  N4  1  0.59191212  0.23900719  0.59088631  1
  N  N5  1  0.39864206  0.23835113  0.39870384  1
  N  N6  1  0.09200793  0.26098837  0.90916432  1
  N  N7  1  0.89868573  0.26163721  0.10130086  1
  N  N8  1  0.60126107  0.73837033  0.60134778  1
  N  N9  1  0.40801594  0.73901383  0.40918423  1
  N  N10  1  0.10121283  0.76163975  0.89865956  1
  N  N11  1  0.90792253  0.76098989  0.09077544  1
  H  H12  1  0.48979746  0.37970070  0.49928586  1
  H  H13  1  0.66022221  0.28632275  0.66283397  1
  H  H14  1  0.60501311  0.15436598  0.59599364  1
  H  H15  1  0.32713541  0.28568954  0.32977382  1
  H  H16  1  0.39141120  0.15359571  0.38781431  1
  H  H17  1  0.98984856  0.12029115  0.00070169  1
  H  H18  1  0.16034004  0.21366697  0.83723110  1
  H  H19  1  0.10514164  0.34562320  0.90409701  1
  H  H20  1  0.82716147  0.21429722  0.17019772  1
  H  H21  1  0.89146936  0.34638924  0.11220357  1
  H  H22  1  0.51024974  0.87970374  0.50083633  1
  H  H23  1  0.67380118  0.78568237  0.66929057  1
  H  H24  1  0.60659699  0.65366188  0.61403534  1
  H  H25  1  0.33885273  0.78631848  0.33809513  1
  H  H26  1  0.39675710  0.65428824  0.40208351  1
  H  H27  1  0.01018724  0.62030243  0.99913366  1
  H  H28  1  0.17377054  0.71433722  0.83072714  1
  H  H29  1  0.10654434  0.84635159  0.88598538  1
  H  H30  1  0.83873500  0.71367500  0.16183514  1
  H  H31  1  0.89663781  0.84571099  0.09786922  1
  Ca  Ca32  1  0.49984690  0.99997709  0.99866912  1
  Ca  Ca33  1  0.99984468  0.50004145  0.50134669  1
  Ge  Ge34  1  0.00150459  0.00005405  0.49854571  1
  Ge  Ge35  1  0.50150074  0.49996511  0.00145872  1
  I  I36  1  0.49772191  0.25430414  0.99495509  1
  I  I37  1  0.20381777  0.98801919  0.21121840  1
  I  I38  1  0.71278253  0.01479762  0.29409169  1
  I  I39  1  0.99768457  0.24571145  0.50509158  1
  I  I40  1  0.28718680  0.01234286  0.70229944  1
  I  I41  1  0.79565540  0.98492494  0.78570450  1
  I  I42  1  0.50189519  0.74570240  0.00512271  1
  I  I43  1  0.70380347  0.51197834  0.28879969  1
  I  I44  1  0.21276673  0.48522155  0.20590879  1
  I  I45  1  0.00194031  0.75431360  0.49484354  1
  I  I46  1  0.29566273  0.51509432  0.71429939  1
  I  I47  1  0.78717801  0.48764963  0.79771490  1
