# generated using pymatgen
data_SrMgH12C2(I3N)2
_symmetry_space_group_name_H-M   'P 1'
_cell_length_a   8.45452366
_cell_length_b   12.23829057
_cell_length_c   8.33541946
_cell_angle_alpha   88.88610605
_cell_angle_beta   90.00968157
_cell_angle_gamma   90.00905827
_symmetry_Int_Tables_number   1
_chemical_formula_structural   SrMgH12C2(I3N)2
_chemical_formula_sum   'Sr2 Mg2 H24 C4 I12 N4'
_cell_volume   862.29382194
_cell_formula_units_Z   2
loop_
 _symmetry_equiv_pos_site_id
 _symmetry_equiv_pos_as_xyz
  1  'x, y, z'
loop_
 _atom_site_type_symbol
 _atom_site_label
 _atom_site_symmetry_multiplicity
 _atom_site_fract_x
 _atom_site_fract_y
 _atom_site_fract_z
 _atom_site_occupancy
  C  C0  1  0.39551398  0.25025398  0.41466155  1
  C  C1  1  0.89675065  0.24994322  0.08652457  1
  C  C2  1  0.60448304  0.74974979  0.58535312  1
  C  C3  1  0.10325685  0.75005802  0.91348859  1
  N  N4  1  0.53604705  0.24969233  0.52099808  1
  N  N5  1  0.03660269  0.25037272  0.97932671  1
  N  N6  1  0.46394885  0.75030982  0.47901910  1
  N  N7  1  0.96340566  0.74962433  0.02068779  1
  H  H8  1  0.43545409  0.25050815  0.28967219  1
  H  H9  1  0.32622691  0.17645787  0.43976937  1
  H  H10  1  0.32522284  0.32324270  0.43780867  1
  H  H11  1  0.60495601  0.18120653  0.49840216  1
  H  H12  1  0.60525061  0.31875042  0.49795009  1
  H  H13  1  0.50575490  0.24821074  0.64254912  1
  H  H14  1  0.93756453  0.24974659  0.21124717  1
  H  H15  1  0.82616348  0.17698983  0.06396969  1
  H  H16  1  0.82745689  0.32379621  0.06184433  1
  H  H17  1  0.10579549  0.18126162  0.00203358  1
  H  H18  1  0.10576358  0.31881136  0.00143670  1
  H  H19  1  0.00557452  0.25181394  0.85795112  1
  H  H20  1  0.56454491  0.74949657  0.71034351  1
  H  H21  1  0.67477353  0.67676018  0.56220662  1
  H  H22  1  0.67377077  0.82354499  0.56024382  1
  H  H23  1  0.39504026  0.81879622  0.50161534  1
  H  H24  1  0.39474529  0.68125189  0.50206721  1
  H  H25  1  0.49424000  0.75179250  0.35746763  1
  H  H26  1  0.06244195  0.75025684  0.78876623  1
  H  H27  1  0.17384387  0.82301066  0.93604704  1
  H  H28  1  0.17255096  0.67620440  0.93816467  1
  H  H29  1  0.89421044  0.81873485  0.99798394  1
  H  H30  1  0.89424709  0.68118526  0.99857714  1
  H  H31  1  0.99443518  0.74818291  0.14206341  1
  Mg  Mg32  1  0.50000236  0.00000805  0.00000850  1
  Mg  Mg33  1  0.99999039  0.50000211  0.49999332  1
  Sr  Sr34  1  0.00000192  0.00000294  0.50000975  1
  Sr  Sr35  1  0.49999613  0.50000999  0.99999178  1
  I  I36  1  0.47560535  0.23867026  0.94283807  1
  I  I37  1  0.19632729  0.01022148  0.16589408  1
  I  I38  1  0.66683781  0.01778971  0.30824777  1
  I  I39  1  0.97501955  0.26134000  0.55773387  1
  I  I40  1  0.33316940  0.98221935  0.69176767  1
  I  I41  1  0.80367966  0.98978095  0.83412504  1
  I  I42  1  0.52439978  0.76134289  0.05717972  1
  I  I43  1  0.69634910  0.48960671  0.33400762  1
  I  I44  1  0.16698164  0.48236034  0.19182253  1
  I  I45  1  0.02497419  0.73866573  0.44227702  1
  I  I46  1  0.30363722  0.51039551  0.66598455  1
  I  I47  1  0.83301508  0.51764483  0.80817505  1
