# generated using pymatgen
data_CaGaH10C2(I3N2)2
_symmetry_space_group_name_H-M   'P 1'
_cell_length_a   8.65720063
_cell_length_b   11.64589571
_cell_length_c   9.05868224
_cell_angle_alpha   89.18973242
_cell_angle_beta   90.15751063
_cell_angle_gamma   90.55440176
_symmetry_Int_Tables_number   1
_chemical_formula_structural   CaGaH10C2(I3N2)2
_chemical_formula_sum   'Ca2 Ga2 H20 C4 I12 N8'
_cell_volume   913.16690290
_cell_formula_units_Z   2
loop_
 _symmetry_equiv_pos_site_id
 _symmetry_equiv_pos_as_xyz
  1  'x, y, z'
loop_
 _atom_site_type_symbol
 _atom_site_label
 _atom_site_symmetry_multiplicity
 _atom_site_fract_x
 _atom_site_fract_y
 _atom_site_fract_z
 _atom_site_occupancy
  C  C0  1  0.49402781  0.29650658  0.48676768  1
  C  C1  1  0.95377588  0.28618047  0.99725706  1
  C  C2  1  0.52626959  0.70959767  0.49318639  1
  C  C3  1  0.99908432  0.70064420  0.99817516  1
  N  N4  1  0.59429465  0.24766324  0.57614482  1
  N  N5  1  0.40995231  0.24238902  0.38844810  1
  N  N6  1  0.07864972  0.28510541  0.91470110  1
  N  N7  1  0.92371542  0.21371722  0.10543184  1
  N  N8  1  0.55602624  0.78365891  0.59733360  1
  N  N9  1  0.42888588  0.72567911  0.38361804  1
  N  N10  1  0.10365589  0.75348895  0.91639585  1
  N  N11  1  0.91582363  0.74914231  0.10048636  1
  H  H12  1  0.47742539  0.38887271  0.49688959  1
  H  H13  1  0.65371152  0.29777131  0.64927914  1
  H  H14  1  0.62101092  0.16267361  0.56879547  1
  H  H15  1  0.33893163  0.28975999  0.32106344  1
  H  H16  1  0.42275723  0.15656354  0.36931578  1
  H  H17  1  0.99736502  0.14790545  0.13421807  1
  H  H18  1  0.16976573  0.23195888  0.93573879  1
  H  H19  1  0.09870321  0.35098451  0.84059058  1
  H  H20  1  0.82058904  0.21771110  0.15912868  1
  H  H21  1  0.86785397  0.35184502  0.97186469  1
  H  H22  1  0.49805160  0.85946200  0.60566206  1
  H  H23  1  0.62673401  0.76119480  0.68307679  1
  H  H24  1  0.59034383  0.62915544  0.49620780  1
  H  H25  1  0.36366692  0.79782522  0.37151718  1
  H  H26  1  0.41012344  0.66111407  0.31007016  1
  H  H27  1  0.97815837  0.60960578  0.97790647  1
  H  H28  1  0.16733499  0.70621730  0.84437210  1
  H  H29  1  0.13634321  0.83656089  0.93571382  1
  H  H30  1  0.83535365  0.70002858  0.15566373  1
  H  H31  1  0.92841873  0.83376240  0.12701769  1
  Ca  Ca32  1  0.48979097  0.99941990  0.05241759  1
  Ca  Ca33  1  0.00059803  0.49673763  0.49006848  1
  Ga  Ga34  1  0.02556441  0.00326836  0.61826297  1
  Ga  Ga35  1  0.49210645  0.50023863  0.99284423  1
  I  I36  1  0.51246475  0.24486460  0.97280487  1
  I  I37  1  0.17944388  0.98820841  0.18656917  1
  I  I38  1  0.66972599  0.00094783  0.33083480  1
  I  I39  1  0.99920430  0.20507761  0.48767634  1
  I  I40  1  0.31003300  0.02045191  0.71273072  1
  I  I41  1  0.82294212  0.00025326  0.82605682  1
  I  I42  1  0.51849728  0.75610730  0.98061269  1
  I  I43  1  0.73692788  0.49250973  0.26439903  1
  I  I44  1  0.21601282  0.48570155  0.22403317  1
  I  I45  1  0.00425609  0.79915940  0.50262089  1
  I  I46  1  0.26664887  0.51576564  0.70634183  1
  I  I47  1  0.76899872  0.50660554  0.73979313  1
