# generated using pymatgen
data_CaZnH10C2(I3N2)2
_symmetry_space_group_name_H-M   'P 1'
_cell_length_a   8.55944877
_cell_length_b   11.56148609
_cell_length_c   8.55329307
_cell_angle_alpha   90.12438980
_cell_angle_beta   89.99976993
_cell_angle_gamma   89.99812802
_symmetry_Int_Tables_number   1
_chemical_formula_structural   CaZnH10C2(I3N2)2
_chemical_formula_sum   'Ca2 Zn2 H20 C4 I12 N8'
_cell_volume   846.43144085
_cell_formula_units_Z   2
loop_
 _symmetry_equiv_pos_site_id
 _symmetry_equiv_pos_as_xyz
  1  'x, y, z'
loop_
 _atom_site_type_symbol
 _atom_site_label
 _atom_site_symmetry_multiplicity
 _atom_site_fract_x
 _atom_site_fract_y
 _atom_site_fract_z
 _atom_site_occupancy
  C  C0  1  0.49382609  0.28939957  0.49653950  1
  C  C1  1  0.99388691  0.21059044  0.00347533  1
  C  C2  1  0.50605531  0.78937784  0.50391455  1
  C  C3  1  0.00600030  0.71062846  0.99605864  1
  N  N4  1  0.59237659  0.23814446  0.59108661  1
  N  N5  1  0.39863423  0.23732672  0.39916894  1
  N  N6  1  0.09246952  0.26184830  0.90896425  1
  N  N7  1  0.89868104  0.26266152  0.10083717  1
  N  N8  1  0.60060770  0.73724517  0.60152964  1
  N  N9  1  0.40766558  0.73819386  0.40881969  1
  N  N10  1  0.10056692  0.76276958  0.89847164  1
  N  N11  1  0.90758058  0.76180597  0.09113884  1
  H  H12  1  0.49027411  0.38359156  0.49939321  1
  H  H13  1  0.66052893  0.28776634  0.66292110  1
  H  H14  1  0.60626102  0.15051218  0.59660858  1
  H  H15  1  0.32755545  0.28683417  0.33018004  1
  H  H16  1  0.39051840  0.14953974  0.38801343  1
  H  H17  1  0.99032335  0.11640073  0.00059270  1
  H  H18  1  0.16063786  0.21222509  0.83713802  1
  H  H19  1  0.10638058  0.34947886  0.90348075  1
  H  H20  1  0.82758108  0.21315247  0.16979984  1
  H  H21  1  0.89057401  0.35044722  0.11201299  1
  H  H22  1  0.51002552  0.88356017  0.50133169  1
  H  H23  1  0.67302653  0.78674496  0.66945923  1
  H  H24  1  0.60614535  0.64954892  0.61474625  1
  H  H25  1  0.33861547  0.78781306  0.33816868  1
  H  H26  1  0.39600668  0.65047957  0.40051788  1
  H  H27  1  0.00997851  0.61644803  0.99862896  1
  H  H28  1  0.17300653  0.71327654  0.83054998  1
  H  H29  1  0.10610055  0.85046777  0.88526939  1
  H  H30  1  0.83851583  0.71217995  0.16176165  1
  H  H31  1  0.89589678  0.84951920  0.09943747  1
  Ca  Ca32  1  0.50028795  0.99998417  0.99864991  1
  Ca  Ca33  1  0.00028751  0.50003307  0.50136979  1
  Zn  Zn34  1  0.00596091  0.00006809  0.49782309  1
  Zn  Zn35  1  0.50596635  0.49994836  0.00219573  1
  I  I36  1  0.49685077  0.26907999  0.99599295  1
  I  I37  1  0.20904848  0.98886062  0.21514847  1
  I  I38  1  0.71662130  0.01211113  0.28763193  1
  I  I39  1  0.99680868  0.23093181  0.50405492  1
  I  I40  1  0.28312918  0.01186622  0.70781249  1
  I  I41  1  0.78905669  0.98724971  0.78161710  1
  I  I42  1  0.50091608  0.73094200  0.00447690  1
  I  I43  1  0.70903957  0.51114052  0.28486358  1
  I  I44  1  0.21660982  0.48790937  0.21236978  1
  I  I45  1  0.00095998  0.76907312  0.49549032  1
  I  I46  1  0.28905623  0.51276139  0.71839233  1
  I  I47  1  0.78311650  0.48812500  0.79219885  1
