# generated using pymatgen
data_ScTlH10C2(I3N2)2
_symmetry_space_group_name_H-M   'P 1'
_cell_length_a   8.65014097
_cell_length_b   12.18963033
_cell_length_c   8.64184401
_cell_angle_alpha   89.90165273
_cell_angle_beta   90.00092511
_cell_angle_gamma   90.00076556
_symmetry_Int_Tables_number   1
_chemical_formula_structural   ScTlH10C2(I3N2)2
_chemical_formula_sum   'Sc2 Tl2 H20 C4 I12 N8'
_cell_volume   911.21215335
_cell_formula_units_Z   2
loop_
 _symmetry_equiv_pos_site_id
 _symmetry_equiv_pos_as_xyz
  1  'x, y, z'
loop_
 _atom_site_type_symbol
 _atom_site_label
 _atom_site_symmetry_multiplicity
 _atom_site_fract_x
 _atom_site_fract_y
 _atom_site_fract_z
 _atom_site_occupancy
  C  C0  1  0.49330415  0.28862658  0.49598608  1
  C  C1  1  0.99333791  0.21136786  0.00406787  1
  C  C2  1  0.50699770  0.78868007  0.50351698  1
  C  C3  1  0.00695001  0.71133852  0.99643571  1
  N  N4  1  0.59149318  0.23962758  0.58902848  1
  N  N5  1  0.39844855  0.23936147  0.39996840  1
  N  N6  1  0.09160828  0.26036797  0.91100759  1
  N  N7  1  0.89851280  0.26060883  0.10001296  1
  N  N8  1  0.60035117  0.73931150  0.60116403  1
  N  N9  1  0.41007604  0.73977480  0.40930368  1
  N  N10  1  0.10028437  0.76068839  0.89886156  1
  N  N11  1  0.90995901  0.76022886  0.09065203  1
  H  H12  1  0.48982801  0.37806302  0.49897492  1
  H  H13  1  0.66127199  0.28600677  0.65816496  1
  H  H14  1  0.60019734  0.15634210  0.59829225  1
  H  H15  1  0.32553557  0.28599712  0.33410241  1
  H  H16  1  0.39525515  0.15629967  0.38528998  1
  H  H17  1  0.98988959  0.12192472  0.00103354  1
  H  H18  1  0.16138815  0.21399155  0.84192570  1
  H  H19  1  0.10031960  0.34364877  0.90180199  1
  H  H20  1  0.82555328  0.21398334  0.16587913  1
  H  H21  1  0.89530283  0.34369253  0.11472665  1
  H  H22  1  0.51064298  0.87810436  0.50021913  1
  H  H23  1  0.66985894  0.78589132  0.67046171  1
  H  H24  1  0.60971182  0.65603731  0.60989191  1
  H  H25  1  0.34360497  0.78620405  0.33685557  1
  H  H26  1  0.39487807  0.65672615  0.40683348  1
  H  H27  1  0.01058099  0.62189715  0.99975571  1
  H  H28  1  0.16984187  0.71412912  0.82955472  1
  H  H29  1  0.10965957  0.84399319  0.89011466  1
  H  H30  1  0.84346996  0.71378580  0.16305481  1
  H  H31  1  0.89474363  0.84326478  0.09309224  1
  Sc  Sc32  1  0.49896628  0.99993716  0.99885148  1
  Sc  Sc33  1  0.99896480  0.50007909  0.50116602  1
  Tl  Tl34  1  0.99993745  0.00010715  0.49858123  1
  Tl  Tl35  1  0.49993143  0.49991254  0.00143393  1
  I  I36  1  0.49831281  0.23111146  0.99339817  1
  I  I37  1  0.22019066  0.98808170  0.18251891  1
  I  I38  1  0.68340815  0.01652910  0.27844808  1
  I  I39  1  0.99828940  0.26890492  0.50664854  1
  I  I40  1  0.31603311  0.00998991  0.71911402  1
  I  I41  1  0.77920392  0.98528118  0.81484861  1
  I  I42  1  0.50254904  0.76882336  0.00582271  1
  I  I43  1  0.72017018  0.51190403  0.31750712  1
  I  I44  1  0.18339223  0.48347644  0.22155223  1
  I  I45  1  0.00257888  0.73119086  0.49412573  1
  I  I46  1  0.27920653  0.51475343  0.68515757  1
  I  I47  1  0.81602701  0.49001540  0.78089959  1
