# generated using pymatgen
data_ScH10AuC2(I3N2)2
_symmetry_space_group_name_H-M   'P 1'
_cell_length_a   8.72049532
_cell_length_b   11.17341988
_cell_length_c   8.71357571
_cell_angle_alpha   89.85369418
_cell_angle_beta   89.99915217
_cell_angle_gamma   89.99886646
_symmetry_Int_Tables_number   1
_chemical_formula_structural   ScH10AuC2(I3N2)2
_chemical_formula_sum   'Sc2 H20 Au2 C4 I12 N8'
_cell_volume   849.02849343
_cell_formula_units_Z   2
loop_
 _symmetry_equiv_pos_site_id
 _symmetry_equiv_pos_as_xyz
  1  'x, y, z'
loop_
 _atom_site_type_symbol
 _atom_site_label
 _atom_site_symmetry_multiplicity
 _atom_site_fract_x
 _atom_site_fract_y
 _atom_site_fract_z
 _atom_site_occupancy
  C  C0  1  0.49541808  0.29004710  0.49604887  1
  C  C1  1  0.99542986  0.20994744  0.00398571  1
  C  C2  1  0.50510948  0.79006816  0.50336021  1
  C  C3  1  0.00508599  0.70992925  0.99660638  1
  N  N4  1  0.59357517  0.23762332  0.58833068  1
  N  N5  1  0.40058714  0.23593255  0.40230864  1
  N  N6  1  0.09361953  0.26238142  0.91171517  1
  N  N7  1  0.90060506  0.26406241  0.09771956  1
  N  N8  1  0.59680346  0.73605351  0.60054965  1
  N  N9  1  0.40998221  0.73756321  0.40832995  1
  N  N10  1  0.09676638  0.76394874  0.89943782  1
  N  N11  1  0.90991297  0.76243703  0.09163738  1
  H  H12  1  0.49199019  0.38753349  0.49754187  1
  H  H13  1  0.66189746  0.28955395  0.65666266  1
  H  H14  1  0.60510360  0.14695705  0.59796044  1
  H  H15  1  0.32905694  0.28712074  0.33588506  1
  H  H16  1  0.39434282  0.14520766  0.38968350  1
  H  H17  1  0.99199309  0.11246785  0.00246144  1
  H  H18  1  0.16194081  0.21044645  0.84338553  1
  H  H19  1  0.10516458  0.35304124  0.90211927  1
  H  H20  1  0.82906126  0.21287229  0.16412885  1
  H  H21  1  0.89437122  0.35478593  0.11037245  1
  H  H22  1  0.50861942  0.88756078  0.50110258  1
  H  H23  1  0.66583547  0.78725585  0.66921906  1
  H  H24  1  0.60514618  0.64526104  0.61169744  1
  H  H25  1  0.34375101  0.78949369  0.33760465  1
  H  H26  1  0.39580346  0.64698322  0.40198829  1
  H  H27  1  0.00861607  0.61244144  0.99887834  1
  H  H28  1  0.16582337  0.71276268  0.83077725  1
  H  H29  1  0.10508857  0.85474968  0.88827877  1
  H  H30  1  0.84368891  0.71048776  0.16234602  1
  H  H31  1  0.89570873  0.85300293  0.09795529  1
  Sc  Sc32  1  0.49866766  0.99991365  0.99817347  1
  Sc  Sc33  1  0.99866534  0.50010777  0.50183363  1
  Au  Au34  1  0.99726958  0.00007533  0.49789482  1
  Au  Au35  1  0.49726462  0.49994024  0.00211276  1
  I  I36  1  0.49864945  0.26222637  0.99647584  1
  I  I37  1  0.23637917  0.98691571  0.19360324  1
  I  I38  1  0.69561071  0.01185619  0.26106661  1
  I  I39  1  0.99863677  0.23778699  0.50358066  1
  I  I40  1  0.30497473  0.01273136  0.73452557  1
  I  I41  1  0.76266502  0.98846696  0.80275093  1
  I  I42  1  0.50284899  0.73768366  0.00261092  1
  I  I43  1  0.73637161  0.51308886  0.30640115  1
  I  I44  1  0.19560648  0.48814229  0.23893256  1
  I  I45  1  0.00288847  0.76233012  0.49733559  1
  I  I46  1  0.26265588  0.51153893  0.69725014  1
  I  I47  1  0.80496637  0.48727868  0.76547808  1
