# generated using pymatgen
data_ScInH10C2(I3N2)2
_symmetry_space_group_name_H-M   'P 1'
_cell_length_a   8.63670125
_cell_length_b   12.09377535
_cell_length_c   8.62714029
_cell_angle_alpha   89.84558988
_cell_angle_beta   89.99954488
_cell_angle_gamma   90.00216003
_symmetry_Int_Tables_number   1
_chemical_formula_structural   ScInH10C2(I3N2)2
_chemical_formula_sum   'Sc2 In2 H20 C4 I12 N8'
_cell_volume   901.10433178
_cell_formula_units_Z   2
loop_
 _symmetry_equiv_pos_site_id
 _symmetry_equiv_pos_as_xyz
  1  'x, y, z'
loop_
 _atom_site_type_symbol
 _atom_site_label
 _atom_site_symmetry_multiplicity
 _atom_site_fract_x
 _atom_site_fract_y
 _atom_site_fract_z
 _atom_site_occupancy
  C  C0  1  0.49362864  0.28835268  0.49583545  1
  C  C1  1  0.99369091  0.21164104  0.00418152  1
  C  C2  1  0.50669155  0.78840686  0.50361306  1
  C  C3  1  0.00662898  0.71159544  0.99637113  1
  N  N4  1  0.59194907  0.23915618  0.58923673  1
  N  N5  1  0.39875715  0.23877115  0.39970318  1
  N  N6  1  0.09203571  0.26084111  0.91080961  1
  N  N7  1  0.89879613  0.26121671  0.10030485  1
  N  N8  1  0.60017441  0.73871304  0.60130203  1
  N  N9  1  0.40951978  0.73932166  0.40919734  1
  N  N10  1  0.10012463  0.76130203  0.89870792  1
  N  N11  1  0.90941780  0.76066822  0.09076549  1
  H  H12  1  0.49013579  0.37847118  0.49858087  1
  H  H13  1  0.66185100  0.28619505  0.65799978  1
  H  H14  1  0.60118114  0.15524258  0.59914209  1
  H  H15  1  0.32560456  0.28595073  0.33400577  1
  H  H16  1  0.39505141  0.15503495  0.38478622  1
  H  H17  1  0.99018979  0.12152216  0.00142455  1
  H  H18  1  0.16195918  0.21380743  0.84206821  1
  H  H19  1  0.10129474  0.34475745  0.90093600  1
  H  H20  1  0.82562903  0.21403485  0.16597844  1
  H  H21  1  0.89510358  0.34495228  0.11522901  1
  H  H22  1  0.51034502  0.87852124  0.50035095  1
  H  H23  1  0.66937506  0.78580570  0.67085799  1
  H  H24  1  0.60996105  0.65474709  0.61054784  1
  H  H25  1  0.34344393  0.78644333  0.33647424  1
  H  H26  1  0.39399364  0.65564943  0.40607319  1
  H  H27  1  0.01029245  0.62148192  0.99964060  1
  H  H28  1  0.16935427  0.71420770  0.82916267  1
  H  H29  1  0.10990449  0.84526042  0.88945636  1
  H  H30  1  0.84332637  0.71354458  0.16345628  1
  H  H31  1  0.89386721  0.84434440  0.09386553  1
  Sc  Sc32  1  0.49888284  0.99996616  0.99864555  1
  Sc  Sc33  1  0.99888000  0.50004915  0.50136688  1
  In  In34  1  0.00029009  0.00006965  0.49848332  1
  In  In35  1  0.50028468  0.49994662  0.00152764  1
  I  I36  1  0.49822059  0.23332216  0.99411600  1
  I  I37  1  0.22274480  0.98900005  0.18891362  1
  I  I38  1  0.69057064  0.01400122  0.27508092  1
  I  I39  1  0.99817607  0.26669366  0.50591892  1
  I  I40  1  0.30927024  0.00905498  0.72152423  1
  I  I41  1  0.77588080  0.98791047  0.80726333  1
  I  I42  1  0.50254219  0.76665841  0.00486416  1
  I  I43  1  0.72273063  0.51100016  0.31110058  1
  I  I44  1  0.19055522  0.48600134  0.22491623  1
  I  I45  1  0.00257382  0.73335452  0.49509109  1
  I  I46  1  0.27587719  0.51211541  0.69274347  1
  I  I47  1  0.80926107  0.49095841  0.77848391  1
