# generated using pymatgen
data_ScAgH10C2(I3N2)2
_symmetry_space_group_name_H-M   'P 1'
_cell_length_a   8.46287307
_cell_length_b   11.56911653
_cell_length_c   8.45503794
_cell_angle_alpha   89.86936127
_cell_angle_beta   90.00007596
_cell_angle_gamma   90.00013955
_symmetry_Int_Tables_number   1
_chemical_formula_structural   ScAgH10C2(I3N2)2
_chemical_formula_sum   'Sc2 Ag2 H20 C4 I12 N8'
_cell_volume   827.81340410
_cell_formula_units_Z   2
loop_
 _symmetry_equiv_pos_site_id
 _symmetry_equiv_pos_as_xyz
  1  'x, y, z'
loop_
 _atom_site_type_symbol
 _atom_site_label
 _atom_site_symmetry_multiplicity
 _atom_site_fract_x
 _atom_site_fract_y
 _atom_site_fract_z
 _atom_site_occupancy
  C  C0  1  0.49418632  0.28939744  0.49602148  1
  C  C1  1  0.99425074  0.21059773  0.00398899  1
  C  C2  1  0.50605822  0.78944483  0.50352553  1
  C  C3  1  0.00600044  0.71056026  0.99645748  1
  N  N4  1  0.59443172  0.23833527  0.59146584  1
  N  N5  1  0.39760139  0.23727076  0.39840693  1
  N  N6  1  0.09451465  0.26165980  0.90858123  1
  N  N7  1  0.89764602  0.26271750  0.10159859  1
  N  N8  1  0.60132879  0.73737435  0.60280129  1
  N  N9  1  0.40719517  0.73832168  0.40702119  1
  N  N10  1  0.10127911  0.76263851  0.89720615  1
  N  N11  1  0.90709791  0.76167584  0.09294177  1
  H  H12  1  0.49051282  0.38353626  0.49828213  1
  H  H13  1  0.66420000  0.28805910  0.66273652  1
  H  H14  1  0.60646328  0.15074242  0.60012486  1
  H  H15  1  0.32447084  0.28672673  0.32972421  1
  H  H16  1  0.39097048  0.14963544  0.38565208  1
  H  H17  1  0.99056233  0.11645694  0.00171645  1
  H  H18  1  0.16430030  0.21194109  0.83732176  1
  H  H19  1  0.10657582  0.34925459  0.89995003  1
  H  H20  1  0.82449766  0.21325940  0.17026260  1
  H  H21  1  0.89102488  0.35035453  0.11436537  1
  H  H22  1  0.50971525  0.88358148  0.50069917  1
  H  H23  1  0.67320310  0.78682493  0.67249628  1
  H  H24  1  0.60943105  0.64968943  0.61468248  1
  H  H25  1  0.33842356  0.78806516  0.33449221  1
  H  H26  1  0.39348162  0.65079273  0.40067212  1
  H  H27  1  0.00966858  0.61642331  0.99929382  1
  H  H28  1  0.17317902  0.71319296  0.82752119  1
  H  H29  1  0.10937313  0.85032469  0.88532032  1
  H  H30  1  0.83831729  0.71192580  0.16544633  1
  H  H31  1  0.89336014  0.84920053  0.09927015  1
  Sc  Sc32  1  0.49877418  0.99995429  0.99834372  1
  Sc  Sc33  1  0.99877463  0.50006137  0.50167121  1
  Ag  Ag34  1  0.99933176  0.00012001  0.49860922  1
  Ag  Ag35  1  0.49932812  0.49990605  0.00141023  1
  I  I36  1  0.49850575  0.24485410  0.99628889  1
  I  I37  1  0.22308627  0.98826153  0.20518124  1
  I  I38  1  0.70739182  0.01175638  0.27427556  1
  I  I39  1  0.99846946  0.25515958  0.50375338  1
  I  I40  1  0.29330234  0.01107534  0.72133987  1
  I  I41  1  0.77588733  0.98887797  0.79079256  1
  I  I42  1  0.50208030  0.75510636  0.00310711  1
  I  I43  1  0.72308003  0.51173032  0.29482824  1
  I  I44  1  0.20738433  0.48824594  0.22572251  1
  I  I45  1  0.00212383  0.74490610  0.49685572  1
  I  I46  1  0.27588413  0.51113967  0.70921254  1
  I  I47  1  0.79329341  0.48892646  0.77866622  1
