# generated using pymatgen
data_ScGaH10C2(I3N2)2
_symmetry_space_group_name_H-M   'P 1'
_cell_length_a   8.53971327
_cell_length_b   11.86574377
_cell_length_c   8.53127033
_cell_angle_alpha   89.86985063
_cell_angle_beta   89.99956825
_cell_angle_gamma   90.00069024
_symmetry_Int_Tables_number   1
_chemical_formula_structural   ScGaH10C2(I3N2)2
_chemical_formula_sum   'Sc2 Ga2 H20 C4 I12 N8'
_cell_volume   864.47181525
_cell_formula_units_Z   2
loop_
 _symmetry_equiv_pos_site_id
 _symmetry_equiv_pos_as_xyz
  1  'x, y, z'
loop_
 _atom_site_type_symbol
 _atom_site_label
 _atom_site_symmetry_multiplicity
 _atom_site_fract_x
 _atom_site_fract_y
 _atom_site_fract_z
 _atom_site_occupancy
  C  C0  1  0.49377541  0.28889573  0.49600250  1
  C  C1  1  0.99383379  0.21109292  0.00401857  1
  C  C2  1  0.50642427  0.78894866  0.50354235  1
  C  C3  1  0.00636126  0.71105985  0.99643901  1
  N  N4  1  0.59302168  0.23885688  0.59061928  1
  N  N5  1  0.39808265  0.23821203  0.39886236  1
  N  N6  1  0.09310495  0.26113338  0.90943603  1
  N  N7  1  0.89811861  0.26177244  0.10114590  1
  N  N8  1  0.60105437  0.73823780  0.60198539  1
  N  N9  1  0.40818306  0.73893866  0.40814256  1
  N  N10  1  0.10101347  0.76177631  0.89801065  1
  N  N11  1  0.90809010  0.76106555  0.09180654  1
  H  H12  1  0.49020770  0.38073122  0.49858808  1
  H  H13  1  0.66269171  0.28704200  0.66098665  1
  H  H14  1  0.60387894  0.15337980  0.59949980  1
  H  H15  1  0.32515649  0.28641910  0.33131869  1
  H  H16  1  0.39268854  0.15279269  0.38520008  1
  H  H17  1  0.99025333  0.11925683  0.00142399  1
  H  H18  1  0.16279160  0.21295107  0.83909071  1
  H  H19  1  0.10399052  0.34660633  0.90058647  1
  H  H20  1  0.82517005  0.21356160  0.16867470  1
  H  H21  1  0.89273336  0.34719557  0.11481881  1
  H  H22  1  0.51005752  0.88078352  0.50048025  1
  H  H23  1  0.67195653  0.78639444  0.67137763  1
  H  H24  1  0.60979709  0.65271497  0.61276114  1
  H  H25  1  0.34038411  0.78718424  0.33570243  1
  H  H26  1  0.39387481  0.65357730  0.40320462  1
  H  H27  1  0.01000567  0.61922668  0.99950723  1
  H  H28  1  0.17193713  0.71362517  0.82863483  1
  H  H29  1  0.10974575  0.84730692  0.88723601  1
  H  H30  1  0.84027305  0.71281492  0.16422349  1
  H  H31  1  0.89375434  0.84642018  0.09672593  1
  Sc  Sc32  1  0.49900664  0.99997032  0.99863677  1
  Sc  Sc33  1  0.99900650  0.50004547  0.50137590  1
  Ga  Ga34  1  0.00047894  0.00010041  0.49870768  1
  Ga  Ga35  1  0.50047599  0.49992271  0.00130473  1
  I  I36  1  0.49823324  0.23801383  0.99526080  1
  I  I37  1  0.22332502  0.98879596  0.19880480  1
  I  I38  1  0.70058970  0.01285673  0.27444057  1
  I  I39  1  0.99819493  0.26199959  0.50477795  1
  I  I40  1  0.29946802  0.01000165  0.72195881  1
  I  I41  1  0.77551591  0.98837146  0.79736887  1
  I  I42  1  0.50220373  0.76198145  0.00390118  1
  I  I43  1  0.72331297  0.51119694  0.30120998  1
  I  I44  1  0.20057668  0.48714716  0.22555663  1
  I  I45  1  0.00224553  0.73803034  0.49606050  1
  I  I46  1  0.27551428  0.51165083  0.70263820  1
  I  I47  1  0.79945941  0.49000335  0.77804873  1
