# generated using pymatgen
data_ScCuH10C2(I3N2)2
_symmetry_space_group_name_H-M   'P 1'
_cell_length_a   8.68583549
_cell_length_b   10.51607445
_cell_length_c   8.89287700
_cell_angle_alpha   90.07725995
_cell_angle_beta   90.00176375
_cell_angle_gamma   89.99770792
_symmetry_Int_Tables_number   1
_chemical_formula_structural   ScCuH10C2(I3N2)2
_chemical_formula_sum   'Sc2 Cu2 H20 C4 I12 N8'
_cell_volume   812.28258380
_cell_formula_units_Z   2
loop_
 _symmetry_equiv_pos_site_id
 _symmetry_equiv_pos_as_xyz
  1  'x, y, z'
loop_
 _atom_site_type_symbol
 _atom_site_label
 _atom_site_symmetry_multiplicity
 _atom_site_fract_x
 _atom_site_fract_y
 _atom_site_fract_z
 _atom_site_occupancy
  C  C0  1  0.49616022  0.28933327  0.49835189  1
  C  C1  1  0.99615986  0.21068263  0.00163183  1
  C  C2  1  0.50477421  0.79223859  0.50178773  1
  C  C3  1  0.00478739  0.70775247  0.99819453  1
  N  N4  1  0.59518577  0.23479216  0.58888370  1
  N  N5  1  0.40139841  0.23121807  0.40672495  1
  N  N6  1  0.09518849  0.26523134  0.91112753  1
  N  N7  1  0.90140613  0.26878555  0.09327974  1
  N  N8  1  0.59176089  0.73279948  0.59938231  1
  N  N9  1  0.41094499  0.73867063  0.40545525  1
  N  N10  1  0.09174542  0.76717372  0.90061481  1
  N  N11  1  0.91096309  0.76131510  0.09452046  1
  H  H12  1  0.49168722  0.39274839  0.49974039  1
  H  H13  1  0.66475993  0.29046342  0.65463739  1
  H  H14  1  0.61041131  0.13887580  0.59649323  1
  H  H15  1  0.32937600  0.28484066  0.34101747  1
  H  H16  1  0.39633924  0.13495665  0.39379880  1
  H  H17  1  0.99166824  0.10726772  0.00019784  1
  H  H18  1  0.16474932  0.20956681  0.84534752  1
  H  H19  1  0.11042931  0.36114763  0.90355568  1
  H  H20  1  0.82938574  0.21515889  0.15896998  1
  H  H21  1  0.89636364  0.36504519  0.10624350  1
  H  H22  1  0.51174885  0.89552834  0.50052879  1
  H  H23  1  0.66111440  0.78481766  0.66950182  1
  H  H24  1  0.59710999  0.63628225  0.60805576  1
  H  H25  1  0.34729870  0.79472418  0.33465365  1
  H  H26  1  0.39498389  0.64272412  0.39676227  1
  H  H27  1  0.01176736  0.60445372  0.99946091  1
  H  H28  1  0.16111710  0.71515961  0.83048191  1
  H  H29  1  0.09709418  0.86370329  0.89192220  1
  H  H30  1  0.84730667  0.70526678  0.16533216  1
  H  H31  1  0.89498510  0.85726743  0.10320590  1
  Sc  Sc32  1  0.49304790  0.99950262  0.00453676  1
  Sc  Sc33  1  0.99309860  0.50052074  0.49549963  1
  Cu  Cu34  1  0.01499270  0.00161005  0.62728334  1
  Cu  Cu35  1  0.51513666  0.49841953  0.87275527  1
  I  I36  1  0.49570331  0.27640219  0.00642260  1
  I  I37  1  0.23026982  0.98812695  0.18872100  1
  I  I38  1  0.69443707  0.01039999  0.25499612  1
  I  I39  1  0.99570230  0.22361549  0.49359717  1
  I  I40  1  0.30294847  0.01337172  0.72825223  1
  I  I41  1  0.76429261  0.98682285  0.80001364  1
  I  I42  1  0.49904442  0.72271444  0.00594200  1
  I  I43  1  0.73031141  0.51189120  0.31129934  1
  I  I44  1  0.19443783  0.48959989  0.24502091  1
  I  I45  1  0.99905368  0.77729218  0.49409883  1
  I  I46  1  0.26435236  0.51315746  0.70002820  1
  I  I47  1  0.80301913  0.48662411  0.77177582  1
