# generated using pymatgen
data_CrH10RuC2(I3N2)2
_symmetry_space_group_name_H-M   'P 1'
_cell_length_a   11.18708198
_cell_length_b   7.50243887
_cell_length_c   10.34710119
_cell_angle_alpha   79.25261371
_cell_angle_beta   90.00217583
_cell_angle_gamma   89.99279901
_symmetry_Int_Tables_number   1
_chemical_formula_structural   CrH10RuC2(I3N2)2
_chemical_formula_sum   'Cr2 H20 Ru2 C4 I12 N8'
_cell_volume   853.20299605
_cell_formula_units_Z   2
loop_
 _symmetry_equiv_pos_site_id
 _symmetry_equiv_pos_as_xyz
  1  'x, y, z'
loop_
 _atom_site_type_symbol
 _atom_site_label
 _atom_site_symmetry_multiplicity
 _atom_site_fract_x
 _atom_site_fract_y
 _atom_site_fract_z
 _atom_site_occupancy
  C  C0  1  0.48648726  0.25477427  0.55038846  1
  C  C1  1  0.98654614  0.24520068  0.94963780  1
  C  C2  1  0.47513610  0.76321395  0.47717024  1
  C  C3  1  0.97486036  0.73676536  0.02282112  1
  N  N4  1  0.59222167  0.32760966  0.55718553  1
  N  N5  1  0.44134252  0.20660383  0.44460828  1
  N  N6  1  0.09237015  0.17258375  0.94271727  1
  N  N7  1  0.94146620  0.29328478  0.05546386  1
  N  N8  1  0.54816566  0.75870823  0.57726839  1
  N  N9  1  0.36556276  0.69916605  0.48581165  1
  N  N10  1  0.04791815  0.74154122  0.92270435  1
  N  N11  1  0.86524949  0.80068277  0.01419501  1
  H  H12  1  0.43135225  0.23104229  0.63925444  1
  H  H13  1  0.62314331  0.35113298  0.64616021  1
  H  H14  1  0.65177628  0.34979004  0.48023038  1
  H  H15  1  0.35521790  0.16074812  0.44812953  1
  H  H16  1  0.48204645  0.24022833  0.35450624  1
  H  H17  1  0.93132773  0.26878109  0.86084089  1
  H  H18  1  0.12323031  0.14909132  0.85371783  1
  H  H19  1  0.15199813  0.15051678  0.01960669  1
  H  H20  1  0.85527477  0.33890677  0.05207901  1
  H  H21  1  0.98227289  0.25973497  0.14551905  1
  H  H22  1  0.50834398  0.82553191  0.37972907  1
  H  H23  1  0.63257086  0.81101017  0.56316368  1
  H  H24  1  0.52482611  0.69897168  0.67114188  1
  H  H25  1  0.31500299  0.70863027  0.40248159  1
  H  H26  1  0.32675904  0.64368021  0.57394362  1
  H  H27  1  0.00809245  0.67433319  0.12021919  1
  H  H28  1  0.13235823  0.68934429  0.93679264  1
  H  H29  1  0.02454862  0.80137803  0.82886091  1
  H  H30  1  0.81465368  0.79097324  0.09752148  1
  H  H31  1  0.82642046  0.85625472  0.92609114  1
  Cr  Cr32  1  0.53398686  0.12462909  0.05515543  1
  Cr  Cr33  1  0.03397066  0.37537446  0.44486995  1
  Ru  Ru34  1  0.03241149  0.13072372  0.50384996  1
  Ru  Ru35  1  0.53240071  0.36918896  0.99616797  1
  I  I36  1  0.55375245  0.95989455  0.86430402  1
  I  I37  1  0.33359773  0.01095050  0.15989441  1
  I  I38  1  0.69246559  0.03879781  0.23722280  1
  I  I39  1  0.05369920  0.54006110  0.63575354  1
  I  I40  1  0.21726373  0.01304502  0.66804551  1
  I  I41  1  0.84104623  0.01389343  0.65596108  1
  I  I42  1  0.53626130  0.55947157  0.18735778  1
  I  I43  1  0.83355422  0.48911434  0.34014391  1
  I  I44  1  0.19242658  0.46126365  0.26279019  1
  I  I45  1  0.03633367  0.94046723  0.31265736  1
  I  I46  1  0.34106547  0.48618708  0.84399884  1
  I  I47  1  0.71724056  0.48678551  0.83197056  1
