# generated using pymatgen
data_TlCoH10C2(I3N2)2
_symmetry_space_group_name_H-M   'P 1'
_cell_length_a   8.45165045
_cell_length_b   11.66775914
_cell_length_c   8.43926100
_cell_angle_alpha   89.81164736
_cell_angle_beta   89.99988197
_cell_angle_gamma   90.00209517
_symmetry_Int_Tables_number   1
_chemical_formula_structural   TlCoH10C2(I3N2)2
_chemical_formula_sum   'Tl2 Co2 H20 C4 I12 N8'
_cell_volume   832.20640373
_cell_formula_units_Z   2
loop_
 _symmetry_equiv_pos_site_id
 _symmetry_equiv_pos_as_xyz
  1  'x, y, z'
loop_
 _atom_site_type_symbol
 _atom_site_label
 _atom_site_symmetry_multiplicity
 _atom_site_fract_x
 _atom_site_fract_y
 _atom_site_fract_z
 _atom_site_occupancy
  C  C0  1  0.49404414  0.28968885  0.49593147  1
  C  C1  1  0.99410976  0.21030644  0.00408909  1
  C  C2  1  0.50608436  0.78972710  0.50343332  1
  C  C3  1  0.00601961  0.71027164  0.99654551  1
  N  N4  1  0.59423909  0.23858360  0.59120810  1
  N  N5  1  0.39713923  0.23805995  0.39824742  1
  N  N6  1  0.09432942  0.26141420  0.90884464  1
  N  N7  1  0.89718771  0.26192672  0.10176166  1
  N  N8  1  0.60153156  0.73810489  0.60288029  1
  N  N9  1  0.40733546  0.73863215  0.40700689  1
  N  N10  1  0.10147931  0.76191350  0.89711947  1
  N  N11  1  0.90722752  0.76136675  0.09295302  1
  H  H12  1  0.49065668  0.38305940  0.49831291  1
  H  H13  1  0.66599222  0.28732486  0.66134188  1
  H  H14  1  0.60301848  0.15160772  0.60239208  1
  H  H15  1  0.32219601  0.28689986  0.33105168  1
  H  H16  1  0.39331269  0.15126954  0.38282750  1
  H  H17  1  0.99071050  0.11693424  0.00169466  1
  H  H18  1  0.16610138  0.21267561  0.83872649  1
  H  H19  1  0.10313604  0.34839245  0.89768218  1
  H  H20  1  0.82222158  0.21308394  0.16893194  1
  H  H21  1  0.89336645  0.34871722  0.11718790  1
  H  H22  1  0.50938254  0.88310771  0.50040873  1
  H  H23  1  0.67200758  0.78691106  0.67437166  1
  H  H24  1  0.61262983  0.65108298  0.61179418  1
  H  H25  1  0.33970974  0.78741360  0.33248096  1
  H  H26  1  0.39143550  0.65188528  0.40378790  1
  H  H27  1  0.00932941  0.61689830  0.99957640  1
  H  H28  1  0.17197824  0.71311227  0.82564711  1
  H  H29  1  0.11256556  0.84893136  0.88821098  1
  H  H30  1  0.83959402  0.71257162  0.16745344  1
  H  H31  1  0.89131318  0.84810239  0.09615387  1
  Co  Co32  1  0.49967498  0.99999426  0.99865947  1
  Co  Co33  1  0.99966816  0.50001820  0.50134900  1
  Tl  Tl34  1  0.00083621  0.00006515  0.49811556  1
  Tl  Tl35  1  0.50082660  0.49995172  0.00189327  1
  I  I36  1  0.49784367  0.22583878  0.99530125  1
  I  I37  1  0.24697988  0.99004229  0.18653313  1
  I  I38  1  0.68809004  0.01029587  0.25128817  1
  I  I39  1  0.99779773  0.27418335  0.50475252  1
  I  I40  1  0.31167969  0.00842673  0.74583132  1
  I  I41  1  0.75187332  0.99127965  0.80958656  1
  I  I42  1  0.50237050  0.77415627  0.00337073  1
  I  I43  1  0.74697726  0.50994390  0.31348902  1
  I  I44  1  0.18807075  0.48970709  0.24872588  1
  I  I45  1  0.00241309  0.72584804  0.49657669  1
  I  I46  1  0.25185359  0.50874862  0.69041234  1
  I  I47  1  0.81167908  0.49158587  0.75416451  1
