# generated using pymatgen
data_MgGeH12C2(I3N)2
_symmetry_space_group_name_H-M   'P 1'
_cell_length_a   8.26760133
_cell_length_b   11.88958803
_cell_length_c   8.19874767
_cell_angle_alpha   89.77741576
_cell_angle_beta   90.00453234
_cell_angle_gamma   90.00523566
_symmetry_Int_Tables_number   1
_chemical_formula_structural   MgGeH12C2(I3N)2
_chemical_formula_sum   'Mg2 Ge2 H24 C4 I12 N4'
_cell_volume   805.91747633
_cell_formula_units_Z   2
loop_
 _symmetry_equiv_pos_site_id
 _symmetry_equiv_pos_as_xyz
  1  'x, y, z'
loop_
 _atom_site_type_symbol
 _atom_site_label
 _atom_site_symmetry_multiplicity
 _atom_site_fract_x
 _atom_site_fract_y
 _atom_site_fract_z
 _atom_site_occupancy
  C  C0  1  0.39992957  0.24970655  0.41557226  1
  C  C1  1  0.90093675  0.25042272  0.08524538  1
  C  C2  1  0.60006674  0.75029680  0.58443893  1
  C  C3  1  0.09906913  0.74957880  0.91477114  1
  N  N4  1  0.54317561  0.24969836  0.52385720  1
  N  N5  1  0.04359183  0.25032127  0.97619674  1
  N  N6  1  0.45682270  0.75030496  0.47615135  1
  N  N7  1  0.95641713  0.74967713  0.02382396  1
  H  H8  1  0.44110850  0.24971043  0.28869402  1
  H  H9  1  0.32863109  0.17422705  0.44032515  1
  H  H10  1  0.32861510  0.32514098  0.43964793  1
  H  H11  1  0.61401389  0.17922812  0.50102095  1
  H  H12  1  0.61383446  0.32038911  0.50086565  1
  H  H13  1  0.51194377  0.24936120  0.64731672  1
  H  H14  1  0.94279090  0.25047079  0.21187176  1
  H  H15  1  0.82939221  0.17499011  0.06164702  1
  H  H16  1  0.82958188  0.32592580  0.06080045  1
  H  H17  1  0.11427688  0.17958999  0.99892300  1
  H  H18  1  0.11464618  0.32075962  0.99867089  1
  H  H19  1  0.01177160  0.25063685  0.85292352  1
  H  H20  1  0.55888890  0.75029527  0.71131567  1
  H  H21  1  0.67138063  0.67486185  0.56036350  1
  H  H22  1  0.67136778  0.82577595  0.55968301  1
  H  H23  1  0.38598319  0.82077642  0.49898835  1
  H  H24  1  0.38616147  0.67961504  0.49914486  1
  H  H25  1  0.48805340  0.75064152  0.35269456  1
  H  H26  1  0.05721205  0.74953140  0.78814568  1
  H  H27  1  0.17061228  0.82501212  0.93836934  1
  H  H28  1  0.17042658  0.67407649  0.93921320  1
  H  H29  1  0.88572860  0.82040695  0.00110054  1
  H  H30  1  0.88536481  0.67923774  0.00135172  1
  H  H31  1  0.98824039  0.74936187  0.14709654  1
  Mg  Mg32  1  0.49999227  0.00000520  0.00000751  1
  Mg  Mg33  1  0.99998877  0.50000951  0.49997995  1
  Ge  Ge34  1  0.99999334  0.00001052  0.50001827  1
  Ge  Ge35  1  0.50000661  0.50000652  0.99997995  1
  I  I36  1  0.47940052  0.24781908  0.95045039  1
  I  I37  1  0.19359643  0.00880061  0.18478770  1
  I  I38  1  0.68599710  0.01005050  0.30831446  1
  I  I39  1  0.97876306  0.25219591  0.54998731  1
  I  I40  1  0.31400544  0.98995329  0.69169695  1
  I  I41  1  0.80640967  0.99119926  0.81522652  1
  I  I42  1  0.52060688  0.75218638  0.04955875  1
  I  I43  1  0.69360961  0.49114612  0.31514782  1
  I  I44  1  0.18607684  0.48999764  0.19170628  1
  I  I45  1  0.02123544  0.74780796  0.45003321  1
  I  I46  1  0.30638315  0.50885634  0.68486494  1
  I  I47  1  0.81392259  0.51000418  0.80830561  1
