# generated using pymatgen
data_NiHgH10C2(I3N2)2
_symmetry_space_group_name_H-M   'P 1'
_cell_length_a   8.47117587
_cell_length_b   11.66605848
_cell_length_c   8.45564461
_cell_angle_alpha   89.79700228
_cell_angle_beta   90.00044706
_cell_angle_gamma   90.00353456
_symmetry_Int_Tables_number   1
_chemical_formula_structural   NiHgH10C2(I3N2)2
_chemical_formula_sum   'Ni2 Hg2 H20 C4 I12 N8'
_cell_volume   835.62580268
_cell_formula_units_Z   2
loop_
 _symmetry_equiv_pos_site_id
 _symmetry_equiv_pos_as_xyz
  1  'x, y, z'
loop_
 _atom_site_type_symbol
 _atom_site_label
 _atom_site_symmetry_multiplicity
 _atom_site_fract_x
 _atom_site_fract_y
 _atom_site_fract_z
 _atom_site_occupancy
  C  C0  1  0.49552436  0.29000778  0.49545970  1
  C  C1  1  0.99556436  0.20999903  0.00455992  1
  C  C2  1  0.50419359  0.78989824  0.50359599  1
  C  C3  1  0.00411603  0.71009860  0.99641981  1
  N  N4  1  0.59656857  0.23961101  0.59023987  1
  N  N5  1  0.39751736  0.23766073  0.40001392  1
  N  N6  1  0.09662656  0.26040794  0.90978007  1
  N  N7  1  0.89757048  0.26234738  0.10000410  1
  N  N8  1  0.59877502  0.73788633  0.60326539  1
  N  N9  1  0.40728866  0.73913857  0.40537469  1
  N  N10  1  0.09869145  0.76211822  0.89673750  1
  N  N11  1  0.90719772  0.76084889  0.09461858  1
  H  H12  1  0.49249306  0.38355855  0.49607020  1
  H  H13  1  0.66886018  0.28953369  0.65819679  1
  H  H14  1  0.60586012  0.15266038  0.60292963  1
  H  H15  1  0.32255825  0.28639972  0.33289771  1
  H  H16  1  0.39288393  0.15065213  0.38616652  1
  H  H17  1  0.99252933  0.11645467  0.00392824  1
  H  H18  1  0.16891377  0.21048666  0.84182445  1
  H  H19  1  0.10593016  0.34735544  0.89710629  1
  H  H20  1  0.82259632  0.21360194  0.16711658  1
  H  H21  1  0.89294524  0.34935213  0.11386864  1
  H  H22  1  0.50640554  0.88345752  0.50220783  1
  H  H23  1  0.66759694  0.78692716  0.67586137  1
  H  H24  1  0.61048831  0.65078933  0.61132225  1
  H  H25  1  0.34042370  0.78876150  0.33122563  1
  H  H26  1  0.39242136  0.65226066  0.39968666  1
  H  H27  1  0.00638519  0.61654031  0.99780093  1
  H  H28  1  0.16753650  0.71308945  0.82415479  1
  H  H29  1  0.11038091  0.84921154  0.88866511  1
  H  H30  1  0.84034797  0.71121292  0.16877095  1
  H  H31  1  0.89230132  0.84772589  0.10029471  1
  Ni  Ni32  1  0.49986572  0.99996302  0.99786719  1
  Ni  Ni33  1  0.99986201  0.50003323  0.50212759  1
  Hg  Hg34  1  0.00111334  0.99990576  0.49755854  1
  Hg  Hg35  1  0.50111610  0.50009465  0.00241743  1
  I  I36  1  0.49907141  0.27064076  0.99708775  1
  I  I37  1  0.26003628  0.98722397  0.18257116  1
  I  I38  1  0.68449310  0.01061688  0.23820523  1
  I  I39  1  0.99902980  0.22936487  0.50295374  1
  I  I40  1  0.31540398  0.01311455  0.75805426  1
  I  I41  1  0.73941766  0.98930581  0.81292127  1
  I  I42  1  0.50086927  0.72959063  0.00335960  1
  I  I43  1  0.76001787  0.51276638  0.31744195  1
  I  I44  1  0.18447458  0.48938715  0.26177892  1
  I  I45  1  0.00091222  0.77040438  0.49658636  1
  I  I46  1  0.23942583  0.51071682  0.68705648  1
  I  I47  1  0.81541791  0.48687977  0.74195247  1
