# generated using pymatgen
data_HfNiH10C2(I3N2)2
_symmetry_space_group_name_H-M   'P 1'
_cell_length_a   8.64581140
_cell_length_b   10.17163983
_cell_length_c   8.99983342
_cell_angle_alpha   89.80443598
_cell_angle_beta   90.02968897
_cell_angle_gamma   89.99853664
_symmetry_Int_Tables_number   1
_chemical_formula_structural   HfNiH10C2(I3N2)2
_chemical_formula_sum   'Hf2 Ni2 H20 C4 I12 N8'
_cell_volume   791.45934984
_cell_formula_units_Z   2
loop_
 _symmetry_equiv_pos_site_id
 _symmetry_equiv_pos_as_xyz
  1  'x, y, z'
loop_
 _atom_site_type_symbol
 _atom_site_label
 _atom_site_symmetry_multiplicity
 _atom_site_fract_x
 _atom_site_fract_y
 _atom_site_fract_z
 _atom_site_occupancy
  C  C0  1  0.49392214  0.29608604  0.50046902  1
  C  C1  1  0.99400389  0.20402939  -0.00045972  1
  C  C2  1  0.50332576  0.78657111  0.50164487  1
  C  C3  1  0.00343697  0.71328392  0.99799055  1
  N  N4  1  0.58796175  0.24099994  0.59635072  1
  N  N5  1  0.41159042  0.23426148  0.40074148  1
  N  N6  1  0.08792431  0.25889221  0.90346412  1
  N  N7  1  0.91180483  0.26605462  0.09911938  1
  N  N8  1  0.59724444  0.72777523  0.59452011  1
  N  N9  1  0.40272341  0.72913399  0.41449182  1
  N  N10  1  0.09749525  0.77232995  0.90554629  1
  N  N11  1  0.90299230  0.77047236  0.08542672  1
  H  H12  1  0.48160309  0.40238561  0.50552724  1
  H  H13  1  0.64868765  0.29862950  0.66921613  1
  H  H14  1  0.60716782  0.14201057  0.60233707  1
  H  H15  1  0.34316595  0.28744231  0.32966946  1
  H  H16  1  0.41977727  0.13538548  0.38118927  1
  H  H17  1  0.98171151  0.09771818  0.99484188  1
  H  H18  1  0.14854210  0.20107645  0.83076360  1
  H  H19  1  0.10717553  0.35786203  0.89716232  1
  H  H20  1  0.84341371  0.21303270  0.17030196  1
  H  H21  1  0.91972850  0.36500430  0.11816154  1
  H  H22  1  0.51008076  0.89323438  0.49497582  1
  H  H23  1  0.67042242  0.78406245  0.65774769  1
  H  H24  1  0.60068727  0.62858962  0.61101603  1
  H  H25  1  0.33771913  0.78608496  0.34419306  1
  H  H26  1  0.38478467  0.63022224  0.41109007  1
  H  H27  1  0.00983396  0.60657406  0.00388763  1
  H  H28  1  0.17051381  0.71616575  0.84207697  1
  H  H29  1  0.10120452  0.87157393  0.88962120  1
  H  H30  1  0.83778967  0.71330488  0.15525942  1
  H  H31  1  0.88554811  0.86942429  0.08967294  1
  Ni  Ni32  1  0.48213985  0.99787209  0.14391691  1
  Ni  Ni33  1  0.98353779  0.50232148  0.35664828  1
  Hf  Hf34  1  0.00547733  0.00085971  0.48899347  1
  Hf  Hf35  1  0.50570622  0.49924938  0.01144745  1
  I  I36  1  0.50153499  0.21808497  0.99953292  1
  I  I37  1  0.19879577  0.98819100  0.22889917  1
  I  I38  1  0.73126235  0.01296766  0.30233794  1
  I  I39  1  0.00161374  0.28197520  0.50079876  1
  I  I40  1  0.26782304  0.01141699  0.68185356  1
  I  I41  1  0.80715454  0.98919090  0.74780659  1
  I  I42  1  0.50272089  0.78027646  0.00039848  1
  I  I43  1  0.69953442  0.51169506  0.27142307  1
  I  I44  1  0.23130535  0.48710403  0.19729235  1
  I  I45  1  0.00269381  0.71980872  0.50020614  1
  I  I46  1  0.30721729  0.51086972  0.75240903  1
  I  I47  1  0.76751905  0.48850565  0.81812400  1
