# generated using pymatgen
data_CuH10AuC2(I3N2)2
_symmetry_space_group_name_H-M   'P 1'
_cell_length_a   8.03628653
_cell_length_b   11.62375748
_cell_length_c   8.91153223
_cell_angle_alpha   90.14250188
_cell_angle_beta   90.00021787
_cell_angle_gamma   89.99488404
_symmetry_Int_Tables_number   1
_chemical_formula_structural   CuH10AuC2(I3N2)2
_chemical_formula_sum   'Cu2 H20 Au2 C4 I12 N8'
_cell_volume   832.44009586
_cell_formula_units_Z   2
loop_
 _symmetry_equiv_pos_site_id
 _symmetry_equiv_pos_as_xyz
  1  'x, y, z'
loop_
 _atom_site_type_symbol
 _atom_site_label
 _atom_site_symmetry_multiplicity
 _atom_site_fract_x
 _atom_site_fract_y
 _atom_site_fract_z
 _atom_site_occupancy
  C  C0  1  0.49723313  0.28434119  0.49798953  1
  C  C1  1  0.99742311  0.21568155  0.00200969  1
  C  C2  1  0.50355187  0.78512457  0.50257577  1
  C  C3  1  0.00322722  0.71485398  0.99743087  1
  N  N4  1  0.58027409  0.23407994  0.60609457  1
  N  N5  1  0.41677970  0.23128798  0.39025637  1
  N  N6  1  0.08042753  0.26594701  0.89389942  1
  N  N7  1  0.91691821  0.26873536  0.10972903  1
  N  N8  1  0.58048223  0.73188685  0.61191784  1
  N  N9  1  0.42183930  0.73525596  0.39302940  1
  N  N10  1  0.08024478  0.76806153  0.88811287  1
  N  N11  1  0.92160139  0.76475107  0.10700991  1
  H  H12  1  0.49472448  0.37819962  0.49763485  1
  H  H13  1  0.64150248  0.28391614  0.68308354  1
  H  H14  1  0.59063326  0.14690504  0.61667661  1
  H  H15  1  0.35366415  0.27921921  0.31279925  1
  H  H16  1  0.41082527  0.14385736  0.37998426  1
  H  H17  1  0.99500525  0.12182180  0.00239901  1
  H  H18  1  0.14168855  0.21611581  0.81691501  1
  H  H19  1  0.09070391  0.35312472  0.88328441  1
  H  H20  1  0.85383404  0.22080619  0.18720075  1
  H  H21  1  0.91088749  0.35616524  0.11995809  1
  H  H22  1  0.50807417  0.87893387  0.50281692  1
  H  H23  1  0.64198664  0.77962371  0.69096542  1
  H  H24  1  0.58658217  0.64442132  0.62070150  1
  H  H25  1  0.36418927  0.78526491  0.31426701  1
  H  H26  1  0.40797439  0.64817257  0.38383459  1
  H  H27  1  0.00757675  0.62103966  0.99711484  1
  H  H28  1  0.14167277  0.72029568  0.80903558  1
  H  H29  1  0.08648535  0.85552413  0.87938843  1
  H  H30  1  0.86388949  0.71475383  0.18574246  1
  H  H31  1  0.90788276  0.85184359  0.11628026  1
  Cu  Cu32  1  0.49974588  0.99595222  0.99784399  1
  Cu  Cu33  1  0.99977103  0.50403937  0.50208195  1
  Au  Au34  1  0.00045155  0.02116193  0.49843108  1
  Au  Au35  1  0.50041750  0.47884644  0.00159148  1
  I  I36  1  0.49909893  0.24547041  0.99882970  1
  I  I37  1  0.26360764  0.98026803  0.17280028  1
  I  I38  1  0.74488622  0.02077904  0.30246207  1
  I  I39  1  0.99901625  0.25453111  0.50125165  1
  I  I40  1  0.25663900  0.02082707  0.69338557  1
  I  I41  1  0.73588166  0.98082271  0.82266256  1
  I  I42  1  0.49986821  0.71135446  0.00264519  1
  I  I43  1  0.76357946  0.51970717  0.32718867  1
  I  I44  1  0.24484895  0.47930228  0.19756184  1
  I  I45  1  0.00000752  0.78865927  0.49728801  1
  I  I46  1  0.23583342  0.51921899  0.67732804  1
  I  I47  1  0.75658090  0.47911107  0.80661461  1
