# generated using pymatgen
data_YCuH10C2(I3N2)2
_symmetry_space_group_name_H-M   'P 1'
_cell_length_a   8.89806416
_cell_length_b   10.81699395
_cell_length_c   8.75930899
_cell_angle_alpha   89.95943323
_cell_angle_beta   90.01069203
_cell_angle_gamma   89.99717758
_symmetry_Int_Tables_number   1
_chemical_formula_structural   YCuH10C2(I3N2)2
_chemical_formula_sum   'Y2 Cu2 H20 C4 I12 N8'
_cell_volume   843.08594595
_cell_formula_units_Z   2
loop_
 _symmetry_equiv_pos_site_id
 _symmetry_equiv_pos_as_xyz
  1  'x, y, z'
loop_
 _atom_site_type_symbol
 _atom_site_label
 _atom_site_symmetry_multiplicity
 _atom_site_fract_x
 _atom_site_fract_y
 _atom_site_fract_z
 _atom_site_occupancy
  C  C0  1  0.50075646  0.28893500  0.49605212  1
  C  C1  1  1.00081440  0.21105390  0.00386445  1
  C  C2  1  0.50718510  0.79101722  0.50037133  1
  C  C3  1  0.00722857  0.70899283  0.99956587  1
  N  N4  1  0.59539298  0.23579777  0.59027389  1
  N  N5  1  0.41207472  0.23240117  0.39920829  1
  N  N6  1  0.09548022  0.26420536  0.90967734  1
  N  N7  1  0.91221861  0.26754996  0.10072792  1
  N  N8  1  0.60066543  0.73524386  0.59337018  1
  N  N9  1  0.40920435  0.73688818  0.41094317  1
  N  N10  1  0.10064852  0.76473883  0.90657170  1
  N  N11  1  0.90921493  0.76313108  0.08895979  1
  H  H12  1  0.49439196  0.38944279  0.49893506  1
  H  H13  1  0.65849361  0.28966851  0.66174656  1
  H  H14  1  0.61008905  0.14244747  0.59792641  1
  H  H15  1  0.34252200  0.28452888  0.33159804  1
  H  H16  1  0.40818493  0.13880309  0.38592364  1
  H  H17  1  0.99440859  0.11055296  0.00083328  1
  H  H18  1  0.15852086  0.21033864  0.83817064  1
  H  H19  1  0.11020017  0.35756293  0.90212450  1
  H  H20  1  0.84263567  0.21542081  0.16827957  1
  H  H21  1  0.90836756  0.36115543  0.11412630  1
  H  H22  1  0.51208563  0.89152592  0.49667035  1
  H  H23  1  0.67131289  0.78749927  0.65942942  1
  H  H24  1  0.60481207  0.64165164  0.60697448  1
  H  H25  1  0.34204436  0.79018032  0.34245616  1
  H  H26  1  0.39429463  0.64343891  0.40524562  1
  H  H27  1  0.01216962  0.60848940  1.00334400  1
  H  H28  1  0.17128797  0.71247185  0.84053342  1
  H  H29  1  0.10473631  0.85833787  0.89289035  1
  H  H30  1  0.84210723  0.70984558  0.15746477  1
  H  H31  1  0.89423999  0.85658270  0.09458951  1
  Cu  Cu32  1  0.39054883  0.00111520  -0.01509266  1
  Cu  Cu33  1  0.89039740  0.49899007  0.51561902  1
  Y  Y34  1  0.99416242  -0.00028308  0.50338448  1
  Y  Y35  1  0.49411803  0.50033500  0.99679395  1
  I  I36  1  0.51525855  0.22122609  0.99894432  1
  I  I37  1  0.20639313  0.98619793  0.22326555  1
  I  I38  1  0.73308122  0.01232177  0.29508934  1
  I  I39  1  0.01518324  0.27882598  0.50111285  1
  I  I40  1  0.28151178  0.01259771  0.70243277  1
  I  I41  1  0.80187661  0.98785085  0.77651434  1
  I  I42  1  0.51334160  0.77932830  0.00261874  1
  I  I43  1  0.70652671  0.51377252  0.27683081  1
  I  I44  1  0.23303772  0.48768182  0.20496961  1
  I  I45  1  0.01334013  0.72068977  0.49741958  1
  I  I46  1  0.30195945  0.51214286  0.72349676  1
  I  I47  1  0.78149313  0.48737007  0.79785716  1
