# generated using pymatgen
data_CuAsH10C2(I3N2)2
_symmetry_space_group_name_H-M   'P 1'
_cell_length_a   8.94798057
_cell_length_b   10.47025347
_cell_length_c   8.75645259
_cell_angle_alpha   90.46963485
_cell_angle_beta   89.99521854
_cell_angle_gamma   89.99924518
_symmetry_Int_Tables_number   1
_chemical_formula_structural   CuAsH10C2(I3N2)2
_chemical_formula_sum   'Cu2 As2 H20 C4 I12 N8'
_cell_volume   820.34368203
_cell_formula_units_Z   2
loop_
 _symmetry_equiv_pos_site_id
 _symmetry_equiv_pos_as_xyz
  1  'x, y, z'
loop_
 _atom_site_type_symbol
 _atom_site_label
 _atom_site_symmetry_multiplicity
 _atom_site_fract_x
 _atom_site_fract_y
 _atom_site_fract_z
 _atom_site_occupancy
  C  C0  1  0.49390808  0.29041783  0.49958359  1
  C  C1  1  0.99391235  0.20958052  0.00042236  1
  C  C2  1  0.49819804  0.79156606  0.50310021  1
  C  C3  1  0.99818373  0.70845241  0.99689840  1
  N  N4  1  0.58632702  0.23421245  0.59340911  1
  N  N5  1  0.40609532  0.23335036  0.40058279  1
  N  N6  1  0.08637961  0.26579914  0.90655726  1
  N  N7  1  0.90614211  0.26663433  0.09940731  1
  N  N8  1  0.58983529  0.73278829  0.59539019  1
  N  N9  1  0.40029217  0.73687421  0.41254080  1
  N  N10  1  0.08982022  0.76719194  0.90454386  1
  N  N11  1  0.90031539  0.76318571  0.08746990  1
  H  H12  1  0.48850665  0.39422152  0.50491555  1
  H  H13  1  0.65006515  0.28914157  0.66561571  1
  H  H14  1  0.60259444  0.13780025  0.59776768  1
  H  H15  1  0.33958498  0.28779904  0.33134355  1
  H  H16  1  0.40270809  0.13685423  0.38472480  1
  H  H17  1  0.98851474  0.10577738  0.99504165  1
  H  H18  1  0.15009835  0.21086888  0.83434906  1
  H  H19  1  0.10264862  0.36219845  0.90223908  1
  H  H20  1  0.83961499  0.21218726  0.16867345  1
  H  H21  1  0.90276528  0.36313929  0.11531549  1
  H  H22  1  0.50496492  0.89530763  0.50088359  1
  H  H23  1  0.66184614  0.78615056  0.66122792  1
  H  H24  1  0.59183693  0.63616902  0.60910418  1
  H  H25  1  0.33485510  0.79217918  0.34359986  1
  H  H26  1  0.38590465  0.64035519  0.40425817  1
  H  H27  1  0.00492849  0.60470934  0.99914031  1
  H  H28  1  0.16180939  0.71380271  0.83870300  1
  H  H29  1  0.09185419  0.86380964  0.89080598  1
  H  H30  1  0.83488870  0.70791198  0.15647244  1
  H  H31  1  0.88596651  0.85970912  0.09573377  1
  Cu  Cu32  1  0.62302825  0.00094830  0.01669104  1
  Cu  Cu33  1  0.12313840  0.49900100  0.48341150  1
  As  As34  1  0.01577932  0.00031010  0.49343170  1
  As  As35  1  0.51583531  0.49966934  0.00663118  1
  I  I36  1  0.47998896  0.21969389  0.99528943  1
  I  I37  1  0.18865295  0.98795756  0.23676259  1
  I  I38  1  0.72693452  0.01281973  0.29648422  1
  I  I39  1  0.97998244  0.28029734  0.50472916  1
  I  I40  1  0.25510149  0.01226292  0.69020834  1
  I  I41  1  0.79158779  0.98656126  0.77031225  1
  I  I42  1  0.48107681  0.78011585  0.00018243  1
  I  I43  1  0.68868798  0.51206520  0.26325321  1
  I  I44  1  0.22693592  0.48719532  0.20355792  1
  I  I45  1  0.98113782  0.71986337  0.49981494  1
  I  I46  1  0.29165320  0.51343025  0.72972702  1
  I  I47  1  0.75513252  0.48772605  0.80979679  1
