# generated using pymatgen
data_GaCuH10C2(I3N2)2
_symmetry_space_group_name_H-M   'P 1'
_cell_length_a   9.29323189
_cell_length_b   10.65711175
_cell_length_c   8.74022906
_cell_angle_alpha   90.47672311
_cell_angle_beta   90.01491098
_cell_angle_gamma   90.02755612
_symmetry_Int_Tables_number   1
_chemical_formula_structural   GaCuH10C2(I3N2)2
_chemical_formula_sum   'Ga2 Cu2 H20 C4 I12 N8'
_cell_volume   865.59354603
_cell_formula_units_Z   2
loop_
 _symmetry_equiv_pos_site_id
 _symmetry_equiv_pos_as_xyz
  1  'x, y, z'
loop_
 _atom_site_type_symbol
 _atom_site_label
 _atom_site_symmetry_multiplicity
 _atom_site_fract_x
 _atom_site_fract_y
 _atom_site_fract_z
 _atom_site_occupancy
  C  C0  1  0.48382689  0.29700465  0.51275901  1
  C  C1  1  0.98402888  0.20270159  0.98774988  1
  C  C2  1  0.50042796  0.78113463  0.49211986  1
  C  C3  1  0.99980098  0.71907795  0.00841386  1
  N  N4  1  0.59486704  0.24152023  0.57570891  1
  N  N5  1  0.40456838  0.25004658  0.40196723  1
  N  N6  1  0.09488049  0.25806959  0.92422371  1
  N  N7  1  0.90483702  0.25004365  0.09823892  1
  N  N8  1  0.57428921  0.72691322  0.60089329  1
  N  N9  1  0.40653707  0.72545801  0.40213712  1
  N  N10  1  0.07392937  0.77269354  0.89936695  1
  N  N11  1  0.90580013  0.77524870  0.09763810  1
  H  H12  1  0.45167981  0.38839057  0.55919809  1
  H  H13  1  0.64778377  0.28441333  0.66406794  1
  H  H14  1  0.63019393  0.15469290  0.54234189  1
  H  H15  1  0.32347426  0.30388563  0.35631320  1
  H  H16  1  0.42987394  0.16723336  0.34817059  1
  H  H17  1  0.95199644  0.11101898  0.94202754  1
  H  H18  1  0.14782662  0.21475132  0.83626096  1
  H  H19  1  0.13011451  0.34515947  0.95683982  1
  H  H20  1  0.82383166  0.19628126  0.14427977  1
  H  H21  1  0.93013576  0.33311496  0.15149866  1
  H  H22  1  0.52220905  0.88022994  0.47158661  1
  H  H23  1  0.64119175  0.78218861  0.66706485  1
  H  H24  1  0.55952483  0.63578405  0.63150299  1
  H  H25  1  0.35636275  0.77613677  0.31887708  1
  H  H26  1  0.37951285  0.63281534  0.41021934  1
  H  H27  1  0.02149818  0.62012017  0.02991552  1
  H  H28  1  0.14079659  0.71707769  0.83368509  1
  H  H29  1  0.05919950  0.86363841  0.86793521  1
  H  H30  1  0.85543790  0.72509198  0.18122007  1
  H  H31  1  0.87875729  0.86780968  0.08855165  1
  Cu  Cu32  1  0.61208187  0.90680066  0.02280849  1
  Cu  Cu33  1  0.11242770  0.59348502  0.47627936  1
  Ga  Ga34  1  0.10891791  0.99948172  0.48026985  1
  Ga  Ga35  1  0.60905601  0.50052966  0.01955651  1
  I  I36  1  0.48026644  0.29009412  0.98885606  1
  I  I37  1  0.22179591  0.98810161  0.20763697  1
  I  I38  1  0.67643873  0.01893223  0.26727793  1
  I  I39  1  0.98040451  0.20994701  0.51080931  1
  I  I40  1  0.29716476  0.00056887  0.70174047  1
  I  I41  1  0.73832326  0.98411370  0.78878352  1
  I  I42  1  0.45982316  0.70988587  0.99820832  1
  I  I43  1  0.72184982  0.51185915  0.29230788  1
  I  I44  1  0.17701235  0.48122600  0.23214486  1
  I  I45  1  0.95976212  0.78999846  0.50154193  1
  I  I46  1  0.23802737  0.51600823  0.71069478  1
  I  I47  1  0.79747262  0.49928393  0.79841478  1
