# generated using pymatgen
data_ZnH10PbC2(I3N2)2
_symmetry_space_group_name_H-M   'P 1'
_cell_length_a   8.60212906
_cell_length_b   11.70728099
_cell_length_c   8.59554423
_cell_angle_alpha   89.83437838
_cell_angle_beta   90.00051115
_cell_angle_gamma   90.00118273
_symmetry_Int_Tables_number   1
_chemical_formula_structural   ZnH10PbC2(I3N2)2
_chemical_formula_sum   'Zn2 H20 Pb2 C4 I12 N8'
_cell_volume   865.63251541
_cell_formula_units_Z   2
loop_
 _symmetry_equiv_pos_site_id
 _symmetry_equiv_pos_as_xyz
  1  'x, y, z'
loop_
 _atom_site_type_symbol
 _atom_site_label
 _atom_site_symmetry_multiplicity
 _atom_site_fract_x
 _atom_site_fract_y
 _atom_site_fract_z
 _atom_site_occupancy
  C  C0  1  0.49403503  0.28890405  0.49592265  1
  C  C1  1  0.99409233  0.21109010  0.00408835  1
  C  C2  1  0.50613252  0.78895060  0.50355074  1
  C  C3  1  0.00606850  0.71105303  0.99643474  1
  N  N4  1  0.59227804  0.23830947  0.59029216  1
  N  N5  1  0.39957637  0.23736457  0.39913888  1
  N  N6  1  0.09235845  0.26168646  0.90974993  1
  N  N7  1  0.89962149  0.26262359  0.10086221  1
  N  N8  1  0.60051909  0.73744348  0.60080893  1
  N  N9  1  0.40841771  0.73832099  0.40903558  1
  N  N10  1  0.10046446  0.76256406  0.89919146  1
  N  N11  1  0.90833010  0.76168210  0.09092149  1
  H  H12  1  0.49020569  0.38196594  0.49836692  1
  H  H13  1  0.66168065  0.28715137  0.65997310  1
  H  H14  1  0.60276495  0.15164021  0.59943099  1
  H  H15  1  0.32680101  0.28605359  0.33211966  1
  H  H16  1  0.39498301  0.15077553  0.38541879  1
  H  H17  1  0.99024885  0.11802820  0.00162927  1
  H  H18  1  0.16177545  0.21284706  0.84008229  1
  H  H19  1  0.10287581  0.34835672  0.90064020  1
  H  H20  1  0.82682879  0.21393265  0.16786204  1
  H  H21  1  0.89503882  0.34921351  0.11459750  1
  H  H22  1  0.50949550  0.88202581  0.50077845  1
  H  H23  1  0.67057962  0.78612453  0.67025091  1
  H  H24  1  0.60938950  0.65070064  0.61089959  1
  H  H25  1  0.34115080  0.78718359  0.33691154  1
  H  H26  1  0.39399618  0.65178920  0.40451796  1
  H  H27  1  0.00944211  0.61798056  0.99921959  1
  H  H28  1  0.17054812  0.71388708  0.82976661  1
  H  H29  1  0.10932876  0.84930827  0.88909401  1
  H  H30  1  0.84105103  0.71281226  0.16303643  1
  H  H31  1  0.89388379  0.84820860  0.09542253  1
  Zn  Zn32  1  0.49439659  0.99992563  0.99792686  1
  Zn  Zn33  1  0.99450959  0.50009538  0.50221122  1
  Pb  Pb34  1  0.99904795  0.00005568  0.49850429  1
  Pb  Pb35  1  0.49905398  0.49996277  0.00156353  1
  I  I36  1  0.49897354  0.23144610  0.99507469  1
  I  I37  1  0.22223010  0.98745797  0.20146069  1
  I  I38  1  0.70468050  0.01348033  0.27645019  1
  I  I39  1  0.99891873  0.26856827  0.50493887  1
  I  I40  1  0.29685036  0.01153362  0.72023396  1
  I  I41  1  0.77829718  0.98746145  0.79339747  1
  I  I42  1  0.50353902  0.76854855  0.00410591  1
  I  I43  1  0.72220908  0.51253624  0.29853209  1
  I  I44  1  0.20466871  0.48652180  0.22353007  1
  I  I45  1  0.00357112  0.73146510  0.49581630  1
  I  I46  1  0.27827489  0.51255551  0.70658303  1
  I  I47  1  0.79683546  0.48847077  0.77976008  1
