# generated using pymatgen
data_ZnHgH10C2(I3N2)2
_symmetry_space_group_name_H-M   'P 1'
_cell_length_a   7.24749366
_cell_length_b   14.28377442
_cell_length_c   8.87610377
_cell_angle_alpha   90.09635171
_cell_angle_beta   89.99526960
_cell_angle_gamma   90.00231499
_symmetry_Int_Tables_number   1
_chemical_formula_structural   ZnHgH10C2(I3N2)2
_chemical_formula_sum   'Zn2 Hg2 H20 C4 I12 N8'
_cell_volume   918.86684680
_cell_formula_units_Z   2
loop_
 _symmetry_equiv_pos_site_id
 _symmetry_equiv_pos_as_xyz
  1  'x, y, z'
loop_
 _atom_site_type_symbol
 _atom_site_label
 _atom_site_symmetry_multiplicity
 _atom_site_fract_x
 _atom_site_fract_y
 _atom_site_fract_z
 _atom_site_occupancy
  C  C0  1  0.46127982  0.33000082  0.48370228  1
  C  C1  1  0.96146900  0.16999150  0.01624530  1
  C  C2  1  0.53874814  0.83077469  0.51776286  1
  C  C3  1  0.03857646  0.66921023  0.98229454  1
  N  N4  1  0.50058286  0.32234614  0.62727118  1
  N  N5  1  0.49544547  0.26649231  0.38061445  1
  N  N6  1  0.00067673  0.17774400  0.87268375  1
  N  N7  1  0.99533832  0.23349970  0.11937776  1
  N  N8  1  0.50619638  0.76635992  0.61947113  1
  N  N9  1  0.49775465  0.82389791  0.37434994  1
  N  N10  1  0.00611465  0.73358556  0.88052301  1
  N  N11  1  0.99753948  0.67615949  0.12570395  1
  H  H12  1  0.39653901  0.39520197  0.44723274  1
  H  H13  1  0.46967935  0.37719002  0.69663377  1
  H  H14  1  0.56137472  0.26524127  0.67496123  1
  H  H15  1  0.45779722  0.27830077  0.27124932  1
  H  H16  1  0.55884181  0.20396148  0.40343350  1
  H  H17  1  0.89707484  0.10468197  0.05268262  1
  H  H18  1  0.97002810  0.12289433  0.80325966  1
  H  H19  1  0.06109561  0.23496657  0.82499812  1
  H  H20  1  0.95776166  0.22160688  0.22874166  1
  H  H21  1  0.05841091  0.29613162  0.09659994  1
  H  H22  1  0.60281478  0.89592401  0.55584936  1
  H  H23  1  0.54302677  0.77746713  0.72941559  1
  H  H24  1  0.44472532  0.70364933  0.59452987  1
  H  H25  1  0.52357429  0.87940235  0.30491786  1
  H  H26  1  0.43638866  0.76664213  0.32729008  1
  H  H27  1  0.10258720  0.60403439  0.94429042  1
  H  H28  1  0.04299089  0.72243106  0.77059615  1
  H  H29  1  0.94468033  0.79631886  0.90538090  1
  H  H30  1  0.02324807  0.62067539  0.19520674  1
  H  H31  1  0.93619425  0.73344659  0.17268358  1
  Zn  Zn32  1  0.44727332  0.03588677  0.92307682  1
  Zn  Zn33  1  0.94704462  0.46413359  0.57696357  1
  Hg  Hg34  1  0.03036142  0.97112197  0.47317458  1
  Hg  Hg35  1  0.53020851  0.52883351  0.02687513  1
  I  I36  1  0.48351151  0.21228583  0.98309753  1
  I  I37  1  0.22495312  0.94881671  0.09681287  1
  I  I38  1  0.73235581  0.04629700  0.32425086  1
  I  I39  1  0.98336837  0.28773204  0.51687944  1
  I  I40  1  0.31054518  0.06298448  0.62389815  1
  I  I41  1  0.75672924  0.95745991  0.83941341  1
  I  I42  1  0.52066904  0.72110587  0.01719170  1
  I  I43  1  0.72464955  0.55106210  0.40313949  1
  I  I44  1  0.23209648  0.45370134  0.17576605  1
  I  I45  1  0.02074166  0.77884799  0.48293372  1
  I  I46  1  0.25652291  0.54254546  0.66057235  1
  I  I47  1  0.81043281  0.43701801  0.87610588  1
