# generated using pymatgen
data_ZnH10PtC2(I3N2)2
_symmetry_space_group_name_H-M   'P 1'
_cell_length_a   7.70672223
_cell_length_b   11.95872621
_cell_length_c   9.10042322
_cell_angle_alpha   90.68300657
_cell_angle_beta   89.99801081
_cell_angle_gamma   90.01009526
_symmetry_Int_Tables_number   1
_chemical_formula_structural   ZnH10PtC2(I3N2)2
_chemical_formula_sum   'Zn2 H20 Pt2 C4 I12 N8'
_cell_volume   838.65888787
_cell_formula_units_Z   2
loop_
 _symmetry_equiv_pos_site_id
 _symmetry_equiv_pos_as_xyz
  1  'x, y, z'
loop_
 _atom_site_type_symbol
 _atom_site_label
 _atom_site_symmetry_multiplicity
 _atom_site_fract_x
 _atom_site_fract_y
 _atom_site_fract_z
 _atom_site_occupancy
  C  C0  1  0.46848491  0.29417268  0.47375129  1
  C  C1  1  0.96869076  0.20583346  0.02621126  1
  C  C2  1  0.54083450  0.78847642  0.52636227  1
  C  C3  1  0.04086319  0.71150708  0.97367519  1
  N  N4  1  0.51900029  0.27213552  0.60779527  1
  N  N5  1  0.41021751  0.21992270  0.37840461  1
  N  N6  1  0.01932830  0.22796507  0.89220802  1
  N  N7  1  0.91062824  0.28003018  0.12168210  1
  N  N8  1  0.57390917  0.72033026  0.63474487  1
  N  N9  1  0.47126486  0.75931702  0.40011689  1
  N  N10  1  0.07327043  0.77959280  0.86507727  1
  N  N11  1  0.97107971  0.74062261  0.09985029  1
  H  H12  1  0.47628596  0.38089891  0.43800536  1
  H  H13  1  0.56543000  0.33519158  0.67412541  1
  H  H14  1  0.51519594  0.19303718  0.64917624  1
  H  H15  1  0.37850656  0.24419071  0.27419881  1
  H  H16  1  0.39594840  0.13725182  0.40296690  1
  H  H17  1  0.97621777  0.11905657  0.06177406  1
  H  H18  1  0.06562971  0.16493252  0.82579314  1
  H  H19  1  0.01584812  0.30711682  0.85098326  1
  H  H20  1  0.87881084  0.25568402  0.22584192  1
  H  H21  1  0.89665253  0.36275186  0.09730599  1
  H  H22  1  0.57346225  0.87648191  0.54292944  1
  H  H23  1  0.62225945  0.75072641  0.73181112  1
  H  H24  1  0.54673894  0.63681233  0.62975008  1
  H  H25  1  0.44680450  0.81855824  0.32279457  1
  H  H26  1  0.43251701  0.67969106  0.37500238  1
  H  H27  1  0.07431661  0.62360938  0.95739249  1
  H  H28  1  0.12188337  0.74922536  0.76808839  1
  H  H29  1  0.04510864  0.86297960  0.86976800  1
  H  H30  1  0.94715999  0.68142610  0.17736337  1
  H  H31  1  0.93163391  0.82013735  0.12473227  1
  Zn  Zn32  1  0.56302513  0.05611813  0.03805634  1
  Zn  Zn33  1  0.06296375  0.44391338  0.46213286  1
  Pt  Pt34  1  0.01321403  0.01689008  0.47272923  1
  Pt  Pt35  1  0.51324759  0.48318826  0.02729243  1
  I  I36  1  0.44715573  0.26688884  0.99365212  1
  I  I37  1  0.27694563  0.97752623  0.14095274  1
  I  I38  1  0.74336136  0.99791064  0.28973928  1
  I  I39  1  0.94699194  0.23315000  0.50652137  1
  I  I40  1  0.26418747  0.01968221  0.66542738  1
  I  I41  1  0.73450898  0.99080587  0.81396347  1
  I  I42  1  0.52049319  0.70167497  0.02188933  1
  I  I43  1  0.77697821  0.52240649  0.35898941  1
  I  I44  1  0.24347595  0.50216155  0.21040078  1
  I  I45  1  0.02058515  0.79840401  0.47794537  1
  I  I46  1  0.23459778  0.50933724  0.68605732  1
  I  I47  1  0.76430509  0.48033956  0.83467283  1
