# generated using pymatgen
data_HfZnH10C2(I3N2)2
_symmetry_space_group_name_H-M   'P 1'
_cell_length_a   8.58266818
_cell_length_b   12.09499323
_cell_length_c   8.57395627
_cell_angle_alpha   90.17532863
_cell_angle_beta   89.99971300
_cell_angle_gamma   89.99299441
_symmetry_Int_Tables_number   1
_chemical_formula_structural   HfZnH10C2(I3N2)2
_chemical_formula_sum   'Hf2 Zn2 H20 C4 I12 N8'
_cell_volume   890.03519297
_cell_formula_units_Z   2
loop_
 _symmetry_equiv_pos_site_id
 _symmetry_equiv_pos_as_xyz
  1  'x, y, z'
loop_
 _atom_site_type_symbol
 _atom_site_label
 _atom_site_symmetry_multiplicity
 _atom_site_fract_x
 _atom_site_fract_y
 _atom_site_fract_z
 _atom_site_occupancy
  C  C0  1  0.49310285  0.28857706  0.49645141  1
  C  C1  1  0.99318568  0.21138892  0.00354988  1
  C  C2  1  0.50649173  0.78852505  0.50407458  1
  C  C3  1  0.00642412  0.71147231  0.99588404  1
  N  N4  1  0.59077826  0.23943518  0.59147062  1
  N  N5  1  0.39909876  0.23894575  0.39801641  1
  N  N6  1  0.09089172  0.26056034  0.90859072  1
  N  N7  1  0.89912894  0.26105969  0.10200161  1
  N  N8  1  0.60208544  0.73898650  0.60063075  1
  N  N9  1  0.40740662  0.73931873  0.41020591  1
  N  N10  1  0.10202617  0.76103020  0.89938195  1
  N  N11  1  0.90727783  0.76070510  0.08976401  1
  H  H12  1  0.48941097  0.37868603  0.49989078  1
  H  H13  1  0.65884287  0.28658813  0.66312993  1
  H  H14  1  0.60466040  0.15569024  0.59615407  1
  H  H15  1  0.32796172  0.28611813  0.32964238  1
  H  H16  1  0.39117053  0.15506300  0.38672476  1
  H  H17  1  0.98947724  0.12130679  0.00008619  1
  H  H18  1  0.15898587  0.21338831  0.83694595  1
  H  H19  1  0.10479603  0.34428527  0.90395852  1
  H  H20  1  0.82798367  0.21387165  0.17031966  1
  H  H21  1  0.89121609  0.34491495  0.11329890  1
  H  H22  1  0.51001784  0.87864640  0.50126052  1
  H  H23  1  0.67424446  0.78627006  0.66819426  1
  H  H24  1  0.60768565  0.65517613  0.61370255  1
  H  H25  1  0.33858235  0.78633909  0.33952759  1
  H  H26  1  0.39638575  0.65546624  0.40208251  1
  H  H27  1  0.00994251  0.62136680  0.99868723  1
  H  H28  1  0.17421264  0.71373777  0.83181840  1
  H  H29  1  0.10762349  0.84483221  0.88632658  1
  H  H30  1  0.83844199  0.71367218  0.16038017  1
  H  H31  1  0.89623901  0.84453891  0.09786783  1
  Zn  Zn32  1  0.50063654  0.99992567  0.99941855  1
  Zn  Zn33  1  0.00063616  0.50009585  0.50060483  1
  Hf  Hf34  1  0.00144102  0.00008258  0.49899003  1
  Hf  Hf35  1  0.50143368  0.49993338  0.00101825  1
  I  I36  1  0.49735688  0.26743293  0.99469742  1
  I  I37  1  0.18913715  0.98936775  0.22233031  1
  I  I38  1  0.72441048  0.01396766  0.30983847  1
  I  I39  1  0.99731489  0.23257915  0.50535456  1
  I  I40  1  0.27666092  0.01246252  0.68815604  1
  I  I41  1  0.81118793  0.98435973  0.77492850  1
  I  I42  1  0.50129957  0.73248807  0.00568441  1
  I  I43  1  0.68911715  0.51063121  0.27768513  1
  I  I44  1  0.22439301  0.48607214  0.19015733  1
  I  I45  1  0.00135295  0.76752989  0.49428408  1
  I  I46  1  0.31120269  0.51566098  0.72507124  1
  I  I47  1  0.77665914  0.48751033  0.81186494  1
