# generated using pymatgen
data_MgZnH12C2(I3N)2
_symmetry_space_group_name_H-M   'P 1'
_cell_length_a   7.50885643
_cell_length_b   13.18148880
_cell_length_c   8.64345479
_cell_angle_alpha   89.47728329
_cell_angle_beta   89.99305716
_cell_angle_gamma   90.00123758
_symmetry_Int_Tables_number   1
_chemical_formula_structural   MgZnH12C2(I3N)2
_chemical_formula_sum   'Mg2 Zn2 H24 C4 I12 N4'
_cell_volume   855.47545464
_cell_formula_units_Z   2
loop_
 _symmetry_equiv_pos_site_id
 _symmetry_equiv_pos_as_xyz
  1  'x, y, z'
loop_
 _atom_site_type_symbol
 _atom_site_label
 _atom_site_symmetry_multiplicity
 _atom_site_fract_x
 _atom_site_fract_y
 _atom_site_fract_z
 _atom_site_occupancy
  C  C0  1  0.40277281  0.24700930  0.36349497  1
  C  C1  1  0.89992881  0.24792678  0.13564766  1
  C  C2  1  0.59986608  0.74790717  0.63585378  1
  C  C3  1  0.09747881  0.74710942  0.86367353  1
  N  N4  1  0.52872516  0.26387452  0.49262796  1
  N  N5  1  0.02615837  0.26370028  0.00596332  1
  N  N6  1  0.47378114  0.76377957  0.50612105  1
  N  N7  1  0.97133654  0.76381428  0.99273985  1
  H  H8  1  0.47750900  0.24517209  0.25460179  1
  H  H9  1  0.33354531  0.17492921  0.38303984  1
  H  H10  1  0.30797893  0.31010794  0.36028484  1
  H  H11  1  0.62815362  0.20922701  0.49715568  1
  H  H12  1  0.59269777  0.33410830  0.47886561  1
  H  H13  1  0.46768325  0.26236673  0.60126113  1
  H  H14  1  0.97458150  0.24591137  0.24461304  1
  H  H15  1  0.83012904  0.17599276  0.11852606  1
  H  H16  1  0.80600951  0.31146733  0.13660475  1
  H  H17  1  0.12438261  0.20837665  0.00386555  1
  H  H18  1  0.09120279  0.33360449  0.01732633  1
  H  H19  1  0.96564730  0.26204591  0.89708776  1
  H  H20  1  0.52512170  0.74590320  0.74478692  1
  H  H21  1  0.66956502  0.67594465  0.61872719  1
  H  H22  1  0.69388959  0.81140227  0.63689330  1
  H  H23  1  0.40884105  0.83371578  0.51748319  1
  H  H24  1  0.37544898  0.70850832  0.50395363  1
  H  H25  1  0.53437886  0.76210446  0.39727592  1
  H  H26  1  0.02287838  0.74529697  0.75472247  1
  H  H27  1  0.19216477  0.81026416  0.86062646  1
  H  H28  1  0.16680736  0.67505797  0.88316475  1
  H  H29  1  0.90722248  0.83401111  0.97900785  1
  H  H30  1  0.87203762  0.70909095  0.99714449  1
  H  H31  1  0.03225635  0.76231495  0.10141592  1
  Mg  Mg32  1  0.56280045  0.94904794  0.10639431  1
  Mg  Mg33  1  0.93720231  0.44908596  0.60629156  1
  Zn  Zn34  1  0.06434548  0.94287330  0.39893663  1
  Zn  Zn35  1  0.43560716  0.44285371  0.89886265  1
  I  I36  1  0.47925325  0.24732238  0.89270030  1
  I  I37  1  0.21256953  0.01551389  0.13270352  1
  I  I38  1  0.72729213  0.01391984  0.37909279  1
  I  I39  1  0.98189639  0.24688858  0.60616645  1
  I  I40  1  0.26386464  0.99277140  0.62747056  1
  I  I41  1  0.76819592  0.99567834  0.86437676  1
  I  I42  1  0.51816616  0.74684856  0.10636687  1
  I  I43  1  0.73180033  0.49572558  0.36432665  1
  I  I44  1  0.23606618  0.49269943  0.12745322  1
  I  I45  1  0.02068628  0.74733911  0.39285720  1
  I  I46  1  0.28741597  0.51555057  0.63270195  1
  I  I47  1  0.77268101  0.51391376  0.87903859  1
