# generated using pymatgen
data_BaZnH10C2(I3N2)2
_symmetry_space_group_name_H-M   'P 1'
_cell_length_a   8.71979762
_cell_length_b   12.02839675
_cell_length_c   8.71338912
_cell_angle_alpha   89.89875209
_cell_angle_beta   90.00143819
_cell_angle_gamma   89.99360049
_symmetry_Int_Tables_number   1
_chemical_formula_structural   BaZnH10C2(I3N2)2
_chemical_formula_sum   'Ba2 Zn2 H20 C4 I12 N8'
_cell_volume   913.90400038
_cell_formula_units_Z   2
loop_
 _symmetry_equiv_pos_site_id
 _symmetry_equiv_pos_as_xyz
  1  'x, y, z'
loop_
 _atom_site_type_symbol
 _atom_site_label
 _atom_site_symmetry_multiplicity
 _atom_site_fract_x
 _atom_site_fract_y
 _atom_site_fract_z
 _atom_site_occupancy
  C  C0  1  0.49320995  0.28885817  0.49598745  1
  C  C1  1  0.99326952  0.21113656  0.00402786  1
  C  C2  1  0.50694604  0.78887613  0.50356400  1
  C  C3  1  0.00687241  0.71111828  0.99642295  1
  N  N4  1  0.59041126  0.23916761  0.58860962  1
  N  N5  1  0.39964604  0.23894994  0.40030079  1
  N  N6  1  0.09049449  0.26082831  0.91144620  1
  N  N7  1  0.89968449  0.26104152  0.09970137  1
  N  N8  1  0.59988085  0.73885836  0.60003007  1
  N  N9  1  0.41046965  0.73928531  0.41036538  1
  N  N10  1  0.09983046  0.76115305  0.89998187  1
  N  N11  1  0.91037218  0.76069267  0.08958701  1
  H  H12  1  0.48946472  0.37946179  0.49917621  1
  H  H13  1  0.66042566  0.28618436  0.65640279  1
  H  H14  1  0.59806000  0.15477207  0.59872014  1
  H  H15  1  0.32642969  0.28617347  0.33569584  1
  H  H16  1  0.39814747  0.15484248  0.38411182  1
  H  H17  1  0.98951617  0.12053445  0.00082416  1
  H  H18  1  0.16053839  0.21381014  0.84367258  1
  H  H19  1  0.09817171  0.34522431  0.90137237  1
  H  H20  1  0.82645205  0.21382245  0.16427333  1
  H  H21  1  0.89818974  0.34514705  0.11590282  1
  H  H22  1  0.51051523  0.87948758  0.50024876  1
  H  H23  1  0.66799391  0.78605711  0.66972587  1
  H  H24  1  0.61040292  0.65442227  0.60745597  1
  H  H25  1  0.34531727  0.78633263  0.33762060  1
  H  H26  1  0.39405290  0.65523578  0.40934722  1
  H  H27  1  0.01045772  0.62050820  0.99972901  1
  H  H28  1  0.16796876  0.71394555  0.83029375  1
  H  H29  1  0.11034277  0.84557601  0.89255509  1
  H  H30  1  0.84519516  0.71365528  0.16230058  1
  H  H31  1  0.89392618  0.84475373  0.09058314  1
  Zn  Zn32  1  0.49678888  0.99992201  0.99849184  1
  Zn  Zn33  1  0.99680199  0.50010433  0.50154474  1
  Ba  Ba34  1  0.00029604  0.00009805  0.49840293  1
  Ba  Ba35  1  0.50029196  0.49992961  0.00161178  1
  I  I36  1  0.49867295  0.22551791  0.99300870  1
  I  I37  1  0.21990494  0.98902035  0.18437118  1
  I  I38  1  0.68617612  0.01581185  0.27907984  1
  I  I39  1  0.99865636  0.27450800  0.50702605  1
  I  I40  1  0.31383979  0.00916841  0.71877204  1
  I  I41  1  0.77997079  0.98588275  0.81174897  1
  I  I42  1  0.50304145  0.77443619  0.00616783  1
  I  I43  1  0.71988398  0.51097753  0.31565148  1
  I  I44  1  0.18616862  0.48419732  0.22091239  1
  I  I45  1  0.00307173  0.72558614  0.49378339  1
  I  I46  1  0.27996806  0.51415188  0.68825494  1
  I  I47  1  0.81382989  0.49083802  0.78124001  1
