# generated using pymatgen
data_ZnSnH10C2(I3N2)2
_symmetry_space_group_name_H-M   'P 1'
_cell_length_a   8.57390472
_cell_length_b   11.61269283
_cell_length_c   8.56735803
_cell_angle_alpha   89.89735841
_cell_angle_beta   89.99978068
_cell_angle_gamma   90.00112460
_symmetry_Int_Tables_number   1
_chemical_formula_structural   ZnSnH10C2(I3N2)2
_chemical_formula_sum   'Zn2 Sn2 H20 C4 I12 N8'
_cell_volume   853.01724485
_cell_formula_units_Z   2
loop_
 _symmetry_equiv_pos_site_id
 _symmetry_equiv_pos_as_xyz
  1  'x, y, z'
loop_
 _atom_site_type_symbol
 _atom_site_label
 _atom_site_symmetry_multiplicity
 _atom_site_fract_x
 _atom_site_fract_y
 _atom_site_fract_z
 _atom_site_occupancy
  C  C0  1  0.49388645  0.28917336  0.49603955  1
  C  C1  1  0.99394411  0.21081649  0.00397865  1
  C  C2  1  0.50606168  0.78920536  0.50357526  1
  C  C3  1  0.00599334  0.71079784  0.99640864  1
  N  N4  1  0.59234369  0.23829485  0.59078254  1
  N  N5  1  0.39912278  0.23733630  0.39883294  1
  N  N6  1  0.09243471  0.26169607  0.90926283  1
  N  N7  1  0.89917012  0.26264761  0.10116839  1
  N  N8  1  0.60085266  0.73739886  0.60101971  1
  N  N9  1  0.40789978  0.73831461  0.40881555  1
  N  N10  1  0.10079639  0.76262914  0.89898063  1
  N  N11  1  0.90779791  0.76168062  0.09115102  1
  H  H12  1  0.49012199  0.38303224  0.49851241  1
  H  H13  1  0.66162263  0.28791074  0.66079561  1
  H  H14  1  0.60367991  0.15100442  0.59988381  1
  H  H15  1  0.32663551  0.28669406  0.33150923  1
  H  H16  1  0.39354336  0.15003746  0.38511510  1
  H  H17  1  0.99016708  0.11695859  0.00148943  1
  H  H18  1  0.16172657  0.21208445  0.83926584  1
  H  H19  1  0.10380044  0.34898858  0.90019507  1
  H  H20  1  0.82665889  0.21328897  0.16847513  1
  H  H21  1  0.89359947  0.34994908  0.11490108  1
  H  H22  1  0.50957694  0.88307115  0.50093519  1
  H  H23  1  0.67132580  0.78675234  0.67021497  1
  H  H24  1  0.60979619  0.64997039  0.61179448  1
  H  H25  1  0.34037951  0.78791437  0.33686057  1
  H  H26  1  0.39358659  0.65112082  0.40313894  1
  H  H27  1  0.00952066  0.61693510  0.99905331  1
  H  H28  1  0.17129896  0.71326193  0.82979066  1
  H  H29  1  0.10973566  0.85003878  0.88820600  1
  H  H30  1  0.84027975  0.71208069  0.16308172  1
  H  H31  1  0.89346679  0.84888035  0.09681138  1
  Zn  Zn32  1  0.49766767  0.99991138  0.99958548  1
  Zn  Zn33  1  0.99777638  0.50011899  0.50053567  1
  Sn  Sn34  1  0.00049551  0.00013510  0.49881828  1
  Sn  Sn35  1  0.50051371  0.49989500  0.00125198  1
  I  I36  1  0.49825894  0.23393145  0.99569947  1
  I  I37  1  0.22180683  0.98787725  0.20683068  1
  I  I38  1  0.70996072  0.01208226  0.27590672  1
  I  I39  1  0.99820030  0.26608479  0.50431644  1
  I  I40  1  0.29095614  0.01141531  0.71988591  1
  I  I41  1  0.77777820  0.98870324  0.78759748  1
  I  I42  1  0.50267202  0.76601243  0.00334217  1
  I  I43  1  0.72176909  0.51211553  0.29314753  1
  I  I44  1  0.20994488  0.48791843  0.22407827  1
  I  I45  1  0.00270366  0.73400360  0.49658038  1
  I  I46  1  0.27774618  0.51131039  0.71237982  1
  I  I47  1  0.79094281  0.48858222  0.78010280  1
