# generated using pymatgen
data_ZnCdH10C2(I3N2)2
_symmetry_space_group_name_H-M   'P 1'
_cell_length_a   8.93092431
_cell_length_b   10.98021323
_cell_length_c   8.66944220
_cell_angle_alpha   89.87792142
_cell_angle_beta   90.16990874
_cell_angle_gamma   90.00173664
_symmetry_Int_Tables_number   1
_chemical_formula_structural   ZnCdH10C2(I3N2)2
_chemical_formula_sum   'Zn2 Cd2 H20 C4 I12 N8'
_cell_volume   850.14977194
_cell_formula_units_Z   2
loop_
 _symmetry_equiv_pos_site_id
 _symmetry_equiv_pos_as_xyz
  1  'x, y, z'
loop_
 _atom_site_type_symbol
 _atom_site_label
 _atom_site_symmetry_multiplicity
 _atom_site_fract_x
 _atom_site_fract_y
 _atom_site_fract_z
 _atom_site_occupancy
  C  C0  1  0.50248753  0.28758353  0.49661967  1
  C  C1  1  0.00242664  0.21247097  0.00306377  1
  C  C2  1  0.51066146  0.79225495  0.49793852  1
  C  C3  1  0.01056581  0.70769761  0.00171379  1
  N  N4  1  0.59903968  0.23455379  0.58929975  1
  N  N5  1  0.41430943  0.23285007  0.39760062  1
  N  N6  1  0.09877266  0.26548805  0.91068149  1
  N  N7  1  0.91454854  0.26714673  0.10183231  1
  N  N8  1  0.60120709  0.73785950  0.59560977  1
  N  N9  1  0.41061470  0.73851416  0.41068760  1
  N  N10  1  0.10088211  0.76206897  0.90430276  1
  N  N11  1  0.91082327  0.76141682  0.08871936  1
  H  H12  1  0.49342992  0.38643036  0.50319670  1
  H  H13  1  0.65879224  0.28663966  0.66531084  1
  H  H14  1  0.61601209  0.14269451  0.59381732  1
  H  H15  1  0.34508609  0.28552076  0.33015722  1
  H  H16  1  0.41205114  0.14095802  0.38109756  1
  H  H17  1  0.99328760  0.11363947  0.99636738  1
  H  H18  1  0.15832905  0.21342425  0.83489022  1
  H  H19  1  0.11579530  0.35734559  0.90632370  1
  H  H20  1  0.84559911  0.21447692  0.16913548  1
  H  H21  1  0.91248850  0.35902367  0.11854957  1
  H  H22  1  0.52113967  0.89077252  0.48726926  1
  H  H23  1  0.67255581  0.78985544  0.66104366  1
  H  H24  1  0.59528676  0.64693563  0.61938353  1
  H  H25  1  0.34585550  0.79033205  0.33840946  1
  H  H26  1  0.39219517  0.64665511  0.41009660  1
  H  H27  1  0.02103708  0.60918364  0.01235458  1
  H  H28  1  0.17209193  0.71010617  0.83914861  1
  H  H29  1  0.09502936  0.85302728  0.88069593  1
  H  H30  1  0.84630152  0.70959254  0.16081835  1
  H  H31  1  0.89244310  0.85328020  0.08931975  1
  Zn  Zn32  1  0.38745896  -0.00060239  0.98386064  1
  Zn  Zn33  1  0.88794667  0.50075239  0.51838924  1
  Cd  Cd34  1  0.96945944  1.00015954  0.51397557  1
  Cd  Cd35  1  0.46912775  0.50014850  0.98895466  1
  I  I36  1  0.51774042  0.21168346  0.99616917  1
  I  I37  1  0.20142726  0.98619571  0.22431636  1
  I  I38  1  0.74289976  0.01464277  0.29101873  1
  I  I39  1  0.01786777  0.28844351  0.50346270  1
  I  I40  1  0.27096392  0.01242635  0.69153146  1
  I  I41  1  0.80226535  0.98416585  0.78333365  1
  I  I42  1  0.51689676  0.78665485  0.00358120  1
  I  I43  1  0.70169848  0.51373302  0.27479977  1
  I  I44  1  0.24158447  0.48524022  0.20955879  1
  I  I45  1  0.01684035  0.71345879  0.49602297  1
  I  I46  1  0.30332289  0.51574953  0.71759915  1
  I  I47  1  0.77137321  0.48741194  0.80807554  1
