# generated using pymatgen
data_ZnH10PdC2(I3N2)2
_symmetry_space_group_name_H-M   'P 1'
_cell_length_a   8.42503622
_cell_length_b   11.80772074
_cell_length_c   8.41786234
_cell_angle_alpha   89.84566851
_cell_angle_beta   90.00042172
_cell_angle_gamma   90.00099565
_symmetry_Int_Tables_number   1
_chemical_formula_structural   ZnH10PdC2(I3N2)2
_chemical_formula_sum   'Zn2 H20 Pd2 C4 I12 N8'
_cell_volume   837.40990535
_cell_formula_units_Z   2
loop_
 _symmetry_equiv_pos_site_id
 _symmetry_equiv_pos_as_xyz
  1  'x, y, z'
loop_
 _atom_site_type_symbol
 _atom_site_label
 _atom_site_symmetry_multiplicity
 _atom_site_fract_x
 _atom_site_fract_y
 _atom_site_fract_z
 _atom_site_occupancy
  C  C0  1  0.49540438  0.28965596  0.49555473  1
  C  C1  1  0.99545302  0.21034717  0.00444511  1
  C  C2  1  0.50404898  0.78973291  0.50439789  1
  C  C3  1  0.00400308  0.71026756  0.99560308  1
  N  N4  1  0.59298460  0.24005136  0.59513581  1
  N  N5  1  0.40085953  0.23784749  0.39570162  1
  N  N6  1  0.09304886  0.25994954  0.90487611  1
  N  N7  1  0.90092852  0.26215942  0.10431194  1
  N  N8  1  0.60322208  0.73777516  0.59990705  1
  N  N9  1  0.40303675  0.74025531  0.40856280  1
  N  N10  1  0.10316536  0.76223618  0.90008691  1
  N  N11  1  0.90298586  0.75973782  0.09143008  1
  H  H12  1  0.49256074  0.38208389  0.49577068  1
  H  H13  1  0.65993007  0.28969135  0.66872276  1
  H  H14  1  0.60745245  0.15425498  0.60257166  1
  H  H15  1  0.33137358  0.28631289  0.32250959  1
  H  H16  1  0.39052457  0.15182070  0.38810110  1
  H  H17  1  0.99257396  0.11792091  0.00420700  1
  H  H18  1  0.15997488  0.21030924  0.83127551  1
  H  H19  1  0.10754135  0.34574461  0.89746209  1
  H  H20  1  0.83142821  0.21369532  0.17749290  1
  H  H21  1  0.89062247  0.34818660  0.11193726  1
  H  H22  1  0.50586472  0.88217444  0.50474871  1
  H  H23  1  0.67767542  0.78604537  0.66789436  1
  H  H24  1  0.60938775  0.65175543  0.61213417  1
  H  H25  1  0.33031702  0.79009694  0.34055310  1
  H  H26  1  0.39403952  0.65444569  0.39610139  1
  H  H27  1  0.00584302  0.61782674  0.99526004  1
  H  H28  1  0.17762915  0.71397628  0.83209839  1
  H  H29  1  0.10929801  0.84825784  0.88784703  1
  H  H30  1  0.83027676  0.70988360  0.15944350  1
  H  H31  1  0.89396027  0.84554190  0.10388251  1
  Zn  Zn32  1  0.49761683  0.99997411  0.00022905  1
  Zn  Zn33  1  0.99804598  0.50002928  0.49999228  1
  Pd  Pd34  1  0.00059349  0.99998499  0.49845677  1
  Pd  Pd35  1  0.50054931  0.50001807  0.00153329  1
  I  I36  1  0.49969208  0.20850377  0.99615254  1
  I  I37  1  0.19057708  0.98421883  0.24662318  1
  I  I38  1  0.74904539  0.01402814  0.30818546  1
  I  I39  1  0.99961741  0.29149717  0.50387895  1
  I  I40  1  0.25193998  0.01580872  0.68866384  1
  I  I41  1  0.81038402  0.98582668  0.74990362  1
  I  I42  1  0.50139780  0.79144889  0.00212892  1
  I  I43  1  0.69054169  0.51574355  0.25331586  1
  I  I44  1  0.24899814  0.48597945  0.19181516  1
  I  I45  1  0.00138577  0.70855641  0.49782525  1
  I  I46  1  0.31033475  0.51421229  0.75004130  1
  I  I47  1  0.75188468  0.48419204  0.81133241  1
