# generated using pymatgen
data_SrZnH10C2(I3N2)2
_symmetry_space_group_name_H-M   'P 1'
_cell_length_a   8.63531474
_cell_length_b   11.75455377
_cell_length_c   8.62881082
_cell_angle_alpha   89.85399386
_cell_angle_beta   90.00074576
_cell_angle_gamma   90.00195250
_symmetry_Int_Tables_number   1
_chemical_formula_structural   SrZnH10C2(I3N2)2
_chemical_formula_sum   'Sr2 Zn2 H20 C4 I12 N8'
_cell_volume   875.85831092
_cell_formula_units_Z   2
loop_
 _symmetry_equiv_pos_site_id
 _symmetry_equiv_pos_as_xyz
  1  'x, y, z'
loop_
 _atom_site_type_symbol
 _atom_site_label
 _atom_site_symmetry_multiplicity
 _atom_site_fract_x
 _atom_site_fract_y
 _atom_site_fract_z
 _atom_site_occupancy
  C  C0  1  0.49371001  0.28890568  0.49601710  1
  C  C1  1  0.99376529  0.21108484  0.00399725  1
  C  C2  1  0.50642196  0.78893665  0.50351175  1
  C  C3  1  0.00635883  0.71106685  0.99647286  1
  N  N4  1  0.59154746  0.23841404  0.59000090  1
  N  N5  1  0.39969265  0.23772715  0.39926999  1
  N  N6  1  0.09162344  0.26158034  0.91005019  1
  N  N7  1  0.89972881  0.26226291  0.10073553  1
  N  N8  1  0.60054702  0.73776882  0.60044318  1
  N  N9  1  0.40882106  0.73842501  0.40957015  1
  N  N10  1  0.10049395  0.76224333  0.89956420  1
  N  N11  1  0.90872778  0.76157363  0.09038849  1
  H  H12  1  0.48977889  0.38159855  0.49882843  1
  H  H13  1  0.66086309  0.28699160  0.65937642  1
  H  H14  1  0.60161654  0.15212376  0.59920717  1
  H  H15  1  0.32702727  0.28630040  0.33280688  1
  H  H16  1  0.39585416  0.15156919  0.38473316  1
  H  H17  1  0.98981883  0.11839684  0.00117351  1
  H  H18  1  0.16095816  0.21300508  0.84068971  1
  H  H19  1  0.10172565  0.34787300  0.90087422  1
  H  H20  1  0.82704815  0.21368750  0.16717237  1
  H  H21  1  0.89590352  0.34841621  0.11528179  1
  H  H22  1  0.50996936  0.88164449  0.50042710  1
  H  H23  1  0.67028940  0.78634274  0.66962993  1
  H  H24  1  0.60979793  0.65140057  0.61014524  1
  H  H25  1  0.34202099  0.78702038  0.33745541  1
  H  H26  1  0.39379838  0.65233967  0.40593420  1
  H  H27  1  0.00991141  0.61836473  0.99956955  1
  H  H28  1  0.17026030  0.71366820  0.83039184  1
  H  H29  1  0.10974193  0.84860625  0.88985376  1
  H  H30  1  0.84191464  0.71298009  0.16247770  1
  H  H31  1  0.89368302  0.84766025  0.09399809  1
  Zn  Zn32  1  0.49560304  0.99995238  0.99824897  1
  Zn  Zn33  1  0.99562714  0.50006422  0.50180044  1
  Sr  Sr34  1  -0.00000402  0.00004399  0.49842792  1
  Sr  Sr35  1  0.49998977  0.49997148  0.00158899  1
  I  I36  1  0.49886375  0.22895729  0.99444126  1
  I  I37  1  0.21967780  0.98853086  0.19783976  1
  I  I38  1  0.70038941  0.01385390  0.27876357  1
  I  I39  1  0.99882554  0.27105739  0.50558851  1
  I  I40  1  0.30050736  0.01025548  0.71813873  1
  I  I41  1  0.78016793  0.98728346  0.79769785  1
  I  I42  1  0.50310681  0.77105304  0.00476754  1
  I  I43  1  0.71966572  0.51146333  0.30217262  1
  I  I44  1  0.20037953  0.48615276  0.22122720  1
  I  I45  1  0.00314022  0.72895952  0.49518232  1
  I  I46  1  0.28016498  0.51273817  0.70230025  1
  I  I47  1  0.80049445  0.48974696  0.78187079  1
