# generated using pymatgen
data_ZnGeH10C2(I3N2)2
_symmetry_space_group_name_H-M   'P 1'
_cell_length_a   9.26718196
_cell_length_b   10.59553224
_cell_length_c   8.78499918
_cell_angle_alpha   90.34034703
_cell_angle_beta   89.99765652
_cell_angle_gamma   89.99757529
_symmetry_Int_Tables_number   1
_chemical_formula_structural   ZnGeH10C2(I3N2)2
_chemical_formula_sum   'Zn2 Ge2 H20 C4 I12 N8'
_cell_volume   862.59022051
_cell_formula_units_Z   2
loop_
 _symmetry_equiv_pos_site_id
 _symmetry_equiv_pos_as_xyz
  1  'x, y, z'
loop_
 _atom_site_type_symbol
 _atom_site_label
 _atom_site_symmetry_multiplicity
 _atom_site_fract_x
 _atom_site_fract_y
 _atom_site_fract_z
 _atom_site_occupancy
  C  C0  1  0.49387343  0.29086842  0.49747637  1
  C  C1  1  0.99387811  0.20909107  0.00246951  1
  C  C2  1  0.49846521  0.79131796  0.50413459  1
  C  C3  1  0.99842636  0.70871181  0.99584146  1
  N  N4  1  0.58390620  0.23587050  0.59117999  1
  N  N5  1  0.40551190  0.23433202  0.40258588  1
  N  N6  1  0.08393892  0.26408819  0.90879990  1
  N  N7  1  0.90550148  0.26563298  0.09735871  1
  N  N8  1  0.58910065  0.73398385  0.59496569  1
  N  N9  1  0.40570613  0.73671124  0.41222807  1
  N  N10  1  0.08899518  0.76608082  0.90495508  1
  N  N11  1  0.90565466  0.76328580  0.08776037  1
  H  H12  1  0.49193614  0.39366302  0.49895208  1
  H  H13  1  0.64688421  0.29082834  0.66095563  1
  H  H14  1  0.59591989  0.14051509  0.59966030  1
  H  H15  1  0.34230349  0.28819365  0.33242659  1
  H  H16  1  0.39782375  0.13874246  0.39046830  1
  H  H17  1  0.99191917  0.10629917  0.00096046  1
  H  H18  1  0.14692702  0.20912610  0.83901501  1
  H  H19  1  0.09597384  0.35944637  0.90034352  1
  H  H20  1  0.84226816  0.21177756  0.16749150  1
  H  H21  1  0.89783349  0.36122195  0.10948596  1
  H  H22  1  0.50042656  0.89407000  0.50508314  1
  H  H23  1  0.65644839  0.78720954  0.66209180  1
  H  H24  1  0.59578506  0.63831358  0.60581261  1
  H  H25  1  0.34127895  0.79143873  0.34451653  1
  H  H26  1  0.39792725  0.64125700  0.39847863  1
  H  H27  1  0.00048016  0.60595328  0.99492222  1
  H  H28  1  0.15635533  0.71288744  0.83781262  1
  H  H29  1  0.09556640  0.86174756  0.89407206  1
  H  H30  1  0.84127426  0.70853939  0.15551021  1
  H  H31  1  0.89778800  0.85874032  0.10146297  1
  Zn  Zn32  1  0.60932771  0.00023855  0.01431222  1
  Zn  Zn33  1  0.10941145  0.49976492  0.48587298  1
  Ge  Ge34  1  0.03433832  0.00043806  0.49158235  1
  Ge  Ge35  1  0.53436754  0.49958969  0.00856939  1
  I  I36  1  0.47196525  0.21752031  0.99384001  1
  I  I37  1  0.19607984  0.98656854  0.23182997  1
  I  I38  1  0.72327807  0.01167800  0.28973218  1
  I  I39  1  0.97198357  0.28250937  0.50622017  1
  I  I40  1  0.26071155  0.01328606  0.69347618  1
  I  I41  1  0.78820295  0.98775066  0.78084558  1
  I  I42  1  0.47289973  0.78208368  0.99676527  1
  I  I43  1  0.69618744  0.51343542  0.26825843  1
  I  I44  1  0.22325131  0.48833926  0.21037240  1
  I  I45  1  0.97296158  0.71793451  0.50331535  1
  I  I46  1  0.28830211  0.51226865  0.71926177  1
  I  I47  1  0.76067317  0.48671212  0.80657275  1
