# generated using pymatgen
data_GaBiH10C2(I3N2)2
_symmetry_space_group_name_H-M   'P 1'
_cell_length_a   8.65079549
_cell_length_b   12.10954337
_cell_length_c   8.64304696
_cell_angle_alpha   90.02848886
_cell_angle_beta   89.99980487
_cell_angle_gamma   89.99782456
_symmetry_Int_Tables_number   1
_chemical_formula_structural   GaBiH10C2(I3N2)2
_chemical_formula_sum   'Ga2 Bi2 H20 C4 I12 N8'
_cell_volume   905.42114078
_cell_formula_units_Z   2
loop_
 _symmetry_equiv_pos_site_id
 _symmetry_equiv_pos_as_xyz
  1  'x, y, z'
loop_
 _atom_site_type_symbol
 _atom_site_label
 _atom_site_symmetry_multiplicity
 _atom_site_fract_x
 _atom_site_fract_y
 _atom_site_fract_z
 _atom_site_occupancy
  C  C0  1  0.49335899  0.28856520  0.49636961  1
  C  C1  1  0.99342044  0.21142021  0.00364502  1
  C  C2  1  0.50646510  0.78855690  0.50378538  1
  C  C3  1  0.00639608  0.71144376  0.99619015  1
  N  N4  1  0.59084318  0.23934040  0.58999641  1
  N  N5  1  0.39957341  0.23886638  0.39951714  1
  N  N6  1  0.09093891  0.26064901  0.91005587  1
  N  N7  1  0.89961616  0.26112307  0.10048676  1
  N  N8  1  0.60050428  0.73885434  0.60024376  1
  N  N9  1  0.40891722  0.73934192  0.41008411  1
  N  N10  1  0.10045387  0.76115941  0.89976321  1
  N  N11  1  0.90882024  0.76065805  0.08987151  1
  H  H12  1  0.48966335  0.37854078  0.49954819  1
  H  H13  1  0.65929939  0.28609545  0.66052192  1
  H  H14  1  0.60277943  0.15558962  0.59603350  1
  H  H15  1  0.32794787  0.28567889  0.33219434  1
  H  H16  1  0.39366274  0.15509454  0.38722733  1
  H  H17  1  0.98971423  0.12144973  0.00043939  1
  H  H18  1  0.15941397  0.21389379  0.83955064  1
  H  H19  1  0.10290409  0.34439774  0.90406580  1
  H  H20  1  0.82796641  0.21430637  0.16778136  1
  H  H21  1  0.89371436  0.34489028  0.11279636  1
  H  H22  1  0.50989235  0.87854818  0.50096767  1
  H  H23  1  0.67143875  0.78567548  0.66834472  1
  H  H24  1  0.60723723  0.65503363  0.61155089  1
  H  H25  1  0.34114998  0.78607856  0.33895084  1
  H  H26  1  0.39675150  0.65561008  0.40413740  1
  H  H27  1  0.00982565  0.62146284  0.99899736  1
  H  H28  1  0.17141317  0.71433635  0.83166740  1
  H  H29  1  0.10718664  0.84497756  0.88846504  1
  H  H30  1  0.84102843  0.71392239  0.16096991  1
  H  H31  1  0.89662759  0.84439607  0.09581090  1
  Ga  Ga32  1  0.49997992  0.99992818  0.99867464  1
  Ga  Ga33  1  -0.00001680  0.50009740  0.50134964  1
  Bi  Bi34  1  0.00090940  0.00007048  0.49841773  1
  Bi  Bi35  1  0.50090302  0.49994962  0.00159439  1
  I  I36  1  0.49785509  0.24791469  0.99497895  1
  I  I37  1  0.20865764  0.98822463  0.20829669  1
  I  I38  1  0.70967400  0.01502517  0.29009127  1
  I  I39  1  0.99782057  0.25210077  0.50506401  1
  I  I40  1  0.28990109  0.01233095  0.70718271  1
  I  I41  1  0.79162505  0.98450510  0.78865304  1
  I  I42  1  0.50196544  0.75206569  0.00507743  1
  I  I43  1  0.70863854  0.51177478  0.29172247  1
  I  I44  1  0.20965229  0.48499340  0.20990496  1
  I  I45  1  0.00200451  0.74795178  0.49488408  1
  I  I46  1  0.29163388  0.51551457  0.71134865  1
  I  I47  1  0.78989069  0.48765877  0.79283423  1
