# generated using pymatgen
data_TlGaH10C2(I3N2)2
_symmetry_space_group_name_H-M   'P 1'
_cell_length_a   8.63478171
_cell_length_b   11.89014723
_cell_length_c   8.62519363
_cell_angle_alpha   89.83318178
_cell_angle_beta   89.99976538
_cell_angle_gamma   90.00158857
_symmetry_Int_Tables_number   1
_chemical_formula_structural   TlGaH10C2(I3N2)2
_chemical_formula_sum   'Tl2 Ga2 H20 C4 I12 N8'
_cell_volume   885.53474915
_cell_formula_units_Z   2
loop_
 _symmetry_equiv_pos_site_id
 _symmetry_equiv_pos_as_xyz
  1  'x, y, z'
loop_
 _atom_site_type_symbol
 _atom_site_label
 _atom_site_symmetry_multiplicity
 _atom_site_fract_x
 _atom_site_fract_y
 _atom_site_fract_z
 _atom_site_occupancy
  C  C0  1  0.49375333  0.28893924  0.49599276  1
  C  C1  1  0.99380758  0.21105016  0.00403351  1
  C  C2  1  0.50655860  0.78898297  0.50340344  1
  C  C3  1  0.00649086  0.71101685  0.99657584  1
  N  N4  1  0.59200540  0.23886658  0.58946786  1
  N  N5  1  0.39899313  0.23840551  0.39988754  1
  N  N6  1  0.09209844  0.26112997  0.91057984  1
  N  N7  1  0.89903720  0.26158163  0.10011672  1
  N  N8  1  0.60021135  0.73843507  0.60097588  1
  N  N9  1  0.40950923  0.73893315  0.40906343  1
  N  N10  1  0.10016316  0.76158325  0.89902373  1
  N  N11  1  0.90940360  0.76106740  0.09088989  1
  H  H12  1  0.49016514  0.38057665  0.49870492  1
  H  H13  1  0.66146556  0.28663790  0.65891509  1
  H  H14  1  0.60186128  0.15351149  0.59857743  1
  H  H15  1  0.32624507  0.28634279  0.33343680  1
  H  H16  1  0.39469473  0.15317438  0.38582417  1
  H  H17  1  0.99021421  0.11941473  0.00130172  1
  H  H18  1  0.16157493  0.21335682  0.84115482  1
  H  H19  1  0.10198206  0.34648203  0.90150441  1
  H  H20  1  0.82626509  0.21364133  0.16654774  1
  H  H21  1  0.89474691  0.34681068  0.11419315  1
  H  H22  1  0.51005597  0.88062624  0.50018385  1
  H  H23  1  0.66995183  0.78632839  0.67020912  1
  H  H24  1  0.60925062  0.65303676  0.61094330  1
  H  H25  1  0.34257604  0.78676319  0.33683142  1
  H  H26  1  0.39482456  0.65375219  0.40544631  1
  H  H27  1  0.00999883  0.61937905  0.99980028  1
  H  H28  1  0.16992658  0.71369153  0.82981064  1
  H  H29  1  0.10919110  0.84697536  0.88906027  1
  H  H30  1  0.84245068  0.71322486  0.16309764  1
  H  H31  1  0.89469403  0.84623958  0.09448660  1
  Ga  Ga32  1  0.49767466  0.99993072  0.99809767  1
  Ga  Ga33  1  0.99767824  0.50008770  0.50192883  1
  Tl  Tl34  1  0.99934903  0.00009944  0.49828726  1
  Tl  Tl35  1  0.49934478  0.49992242  0.00173493  1
  I  I36  1  0.49843232  0.22919868  0.99443795  1
  I  I37  1  0.22799813  0.98921153  0.19067136  1
  I  I38  1  0.69211618  0.01329281  0.27054821  1
  I  I39  1  0.99839624  0.27081902  0.50560191  1
  I  I40  1  0.30769625  0.00902830  0.72649551  1
  I  I41  1  0.77167323  0.98839482  0.80583473  1
  I  I42  1  0.50300357  0.77074602  0.00456253  1
  I  I43  1  0.72798227  0.51077754  0.30934784  1
  I  I44  1  0.19210253  0.48671240  0.22944587  1
  I  I45  1  0.00304258  0.72926833  0.49538542  1
  I  I46  1  0.27167357  0.51163540  0.69416989  1
  I  I47  1  0.80768864  0.49098013  0.77351472  1
