# generated using pymatgen
data_GaH10AuC2(I3N2)2
_symmetry_space_group_name_H-M   'P 1'
_cell_length_a   8.67851898
_cell_length_b   11.74822783
_cell_length_c   8.35540342
_cell_angle_alpha   89.76198988
_cell_angle_beta   89.99384862
_cell_angle_gamma   90.00020049
_symmetry_Int_Tables_number   1
_chemical_formula_structural   GaH10AuC2(I3N2)2
_chemical_formula_sum   'Ga2 H20 Au2 C4 I12 N8'
_cell_volume   851.88633448
_cell_formula_units_Z   2
loop_
 _symmetry_equiv_pos_site_id
 _symmetry_equiv_pos_as_xyz
  1  'x, y, z'
loop_
 _atom_site_type_symbol
 _atom_site_label
 _atom_site_symmetry_multiplicity
 _atom_site_fract_x
 _atom_site_fract_y
 _atom_site_fract_z
 _atom_site_occupancy
  C  C0  1  0.49714013  0.28816878  0.49666678  1
  C  C1  1  0.99715382  0.21184295  0.00333222  1
  C  C2  1  0.50266945  0.78877219  0.50247082  1
  C  C3  1  0.00266059  0.71122926  0.99752281  1
  N  N4  1  0.59876996  0.23841874  0.58955772  1
  N  N5  1  0.39928978  0.23614044  0.40253524  1
  N  N6  1  0.09880282  0.26159068  0.91045904  1
  N  N7  1  0.89929152  0.26388375  0.09751665  1
  N  N8  1  0.60207236  0.73734784  0.59612429  1
  N  N9  1  0.40104232  0.73832549  0.41085869  1
  N  N10  1  0.10203504  0.76266537  0.90384416  1
  N  N11  1  0.90099448  0.76167156  0.08914928  1
  H  H12  1  0.49359223  0.38097421  0.49777262  1
  H  H13  1  0.66836202  0.28801862  0.65931564  1
  H  H14  1  0.61137270  0.15216290  0.59844357  1
  H  H15  1  0.32636168  0.28439342  0.33403579  1
  H  H16  1  0.39282717  0.14971776  0.39167642  1
  H  H17  1  0.99355534  0.11901995  0.00219834  1
  H  H18  1  0.16836927  0.21197866  0.84068955  1
  H  H19  1  0.11143230  0.34782056  0.90161597  1
  H  H20  1  0.82635282  0.21561273  0.16599286  1
  H  H21  1  0.89287961  0.35028111  0.10839295  1
  H  H22  1  0.50487620  0.88157534  0.50053798  1
  H  H23  1  0.67603544  0.78593077  0.66228691  1
  H  H24  1  0.60867970  0.65098042  0.60973206  1
  H  H25  1  0.32916823  0.78743432  0.34245045  1
  H  H26  1  0.39097273  0.65198360  0.40088583  1
  H  H27  1  0.00490217  0.61842017  0.99950054  1
  H  H28  1  0.17603624  0.71408284  0.83767678  1
  H  H29  1  0.10860504  0.84903210  0.89019526  1
  H  H30  1  0.82915291  0.71254824  0.15754396  1
  H  H31  1  0.89089413  0.84798747  0.09906038  1
  Ga  Ga32  1  0.49619959  0.01099257  0.00055365  1
  Ga  Ga33  1  0.99632367  0.48901426  0.49959097  1
  Au  Au34  1  0.99896869  0.99396451  0.49578497  1
  Au  Au35  1  0.49889242  0.50605249  0.00421215  1
  I  I36  1  0.50016554  0.23695667  0.99737869  1
  I  I37  1  0.18897038  0.98319471  0.24482993  1
  I  I38  1  0.70229516  0.01346566  0.25861681  1
  I  I39  1  1.00015051  0.26304495  0.50265320  1
  I  I40  1  0.29815393  0.01414827  0.73768179  1
  I  I41  1  0.81219491  0.98476644  0.74912451  1
  I  I42  1  0.49987646  0.78502137  0.00119064  1
  I  I43  1  0.68894599  0.51679389  0.25508820  1
  I  I44  1  0.20231258  0.48653375  0.24139329  1
  I  I45  1  0.99990186  0.71498572  0.49879058  1
  I  I46  1  0.31217624  0.51524837  0.75083870  1
  I  I47  1  0.79814122  0.48586709  0.76233511  1
