# generated using pymatgen
data_GaH10IrC2(I3N2)2
_symmetry_space_group_name_H-M   'P 1'
_cell_length_a   8.42029984
_cell_length_b   11.41952789
_cell_length_c   8.40971337
_cell_angle_alpha   90.09747644
_cell_angle_beta   89.99953105
_cell_angle_gamma   89.99669094
_symmetry_Int_Tables_number   1
_chemical_formula_structural   GaH10IrC2(I3N2)2
_chemical_formula_sum   'Ga2 H20 Ir2 C4 I12 N8'
_cell_volume   808.64195578
_cell_formula_units_Z   2
loop_
 _symmetry_equiv_pos_site_id
 _symmetry_equiv_pos_as_xyz
  1  'x, y, z'
loop_
 _atom_site_type_symbol
 _atom_site_label
 _atom_site_symmetry_multiplicity
 _atom_site_fract_x
 _atom_site_fract_y
 _atom_site_fract_z
 _atom_site_occupancy
  C  C0  1  0.49398869  0.29019090  0.49652843  1
  C  C1  1  0.99406210  0.20980087  0.00347848  1
  C  C2  1  0.50578074  0.79018711  0.50393727  1
  C  C3  1  0.00570468  0.70981800  0.99603893  1
  N  N4  1  0.59338547  0.23815920  0.59306331  1
  N  N5  1  0.39807350  0.23743220  0.39713916  1
  N  N6  1  0.09348134  0.26182820  0.90699743  1
  N  N7  1  0.89812089  0.26256076  0.10287429  1
  N  N8  1  0.60271817  0.73741333  0.60208288  1
  N  N9  1  0.40561312  0.73816861  0.40797251  1
  N  N10  1  0.10266525  0.76259994  0.89791525  1
  N  N11  1  0.90550897  0.76183346  0.09198348  1
  H  H12  1  0.49041528  0.38555246  0.49938641  1
  H  H13  1  0.66248610  0.28827752  0.66637217  1
  H  H14  1  0.60767730  0.14945008  0.59845536  1
  H  H15  1  0.32594661  0.28739254  0.32675841  1
  H  H16  1  0.38894960  0.14853933  0.38639440  1
  H  H17  1  0.99047085  0.11444020  0.00058898  1
  H  H18  1  0.16259719  0.21171398  0.83368376  1
  H  H19  1  0.10780021  0.35053895  0.90164075  1
  H  H20  1  0.82597591  0.21259905  0.17322222  1
  H  H21  1  0.88900886  0.35145308  0.11363670  1
  H  H22  1  0.50906396  0.88555941  0.50170197  1
  H  H23  1  0.67649332  0.78742088  0.67095088  1
  H  H24  1  0.60867590  0.64861265  0.61561114  1
  H  H25  1  0.33501568  0.78823644  0.33631672  1
  H  H26  1  0.39498500  0.64934075  0.39847283  1
  H  H27  1  0.00899494  0.61444730  0.99826370  1
  H  H28  1  0.17646354  0.71259290  0.82906290  1
  H  H29  1  0.10861662  0.85139822  0.88440783  1
  H  H30  1  0.83489386  0.71176136  0.16360959  1
  H  H31  1  0.89485222  0.85065958  0.10148291  1
  Ga  Ga32  1  0.49879277  0.99991120  0.99877673  1
  Ga  Ga33  1  0.99882858  0.50012306  0.50128522  1
  Ir  Ir34  1  0.00038585  0.00001663  0.49860936  1
  Ir  Ir35  1  0.50037664  0.49999603  0.00139899  1
  I  I36  1  0.49790754  0.26095353  0.99706020  1
  I  I37  1  0.19577322  0.99004390  0.24015994  1
  I  I38  1  0.74282264  0.00911332  0.30218423  1
  I  I39  1  0.99786009  0.23905807  0.50299381  1
  I  I40  1  0.25859084  0.01102515  0.69399245  1
  I  I41  1  0.80437376  0.98976893  0.75640336  1
  I  I42  1  0.50212315  0.73905371  0.00387718  1
  I  I43  1  0.69576253  0.50995113  0.25983894  1
  I  I44  1  0.24280623  0.49091832  0.19781885  1
  I  I45  1  0.00217576  0.76095678  0.49606999  1
  I  I46  1  0.30437254  0.51024348  0.74359505  1
  I  I47  1  0.75858134  0.48895047  0.80600937  1
