# generated using pymatgen
data_CaMgH12C2(I3N)2
_symmetry_space_group_name_H-M   'P 1'
_cell_length_a   8.37580039
_cell_length_b   12.04102189
_cell_length_c   8.25503667
_cell_angle_alpha   89.30213278
_cell_angle_beta   89.99893508
_cell_angle_gamma   90.00527228
_symmetry_Int_Tables_number   1
_chemical_formula_structural   CaMgH12C2(I3N)2
_chemical_formula_sum   'Ca2 Mg2 H24 C4 I12 N4'
_cell_volume   832.48507111
_cell_formula_units_Z   2
loop_
 _symmetry_equiv_pos_site_id
 _symmetry_equiv_pos_as_xyz
  1  'x, y, z'
loop_
 _atom_site_type_symbol
 _atom_site_label
 _atom_site_symmetry_multiplicity
 _atom_site_fract_x
 _atom_site_fract_y
 _atom_site_fract_z
 _atom_site_occupancy
  C  C0  1  0.40317443  0.24948802  0.41722163  1
  C  C1  1  0.90395346  0.25058430  0.08340152  1
  C  C2  1  0.59682183  0.75051654  0.58279003  1
  C  C3  1  0.09605108  0.74941829  0.91660918  1
  N  N4  1  0.54567640  0.24942833  0.52357163  1
  N  N5  1  0.04596247  0.25054829  0.97639088  1
  N  N6  1  0.45432129  0.75057812  0.47643935  1
  N  N7  1  0.95404284  0.74945153  0.02362136  1
  H  H8  1  0.44277664  0.24989675  0.29083894  1
  H  H9  1  0.33365731  0.17445938  0.44260022  1
  H  H10  1  0.33228423  0.32361759  0.44151324  1
  H  H11  1  0.61566041  0.18020207  0.49991184  1
  H  H12  1  0.61468147  0.31968782  0.50013543  1
  H  H13  1  0.51573690  0.24811583  0.64636720  1
  H  H14  1  0.94417467  0.25019405  0.20959155  1
  H  H15  1  0.83286991  0.17645809  0.05953351  1
  H  H16  1  0.83439113  0.32562506  0.05835782  1
  H  H17  1  0.11497497  0.18028391  0.99954739  1
  H  H18  1  0.11612081  0.31976367  0.99969575  1
  H  H19  1  0.01548272  0.25186056  0.85372080  1
  H  H20  1  0.55721785  0.75010779  0.70917311  1
  H  H21  1  0.66771043  0.67638617  0.55849933  1
  H  H22  1  0.66634111  0.82554439  0.55741359  1
  H  H23  1  0.38433823  0.81980507  0.50009833  1
  H  H24  1  0.38531485  0.68031969  0.49987189  1
  H  H25  1  0.48426310  0.75189160  0.35364275  1
  H  H26  1  0.05582927  0.74981016  0.79042012  1
  H  H27  1  0.16713402  0.82354466  0.94047940  1
  H  H28  1  0.16561496  0.67437770  0.94165022  1
  H  H29  1  0.88502845  0.81971492  0.00046684  1
  H  H30  1  0.88388671  0.68023527  0.00031536  1
  H  H31  1  0.98452353  0.74813843  0.14629131  1
  Mg  Mg32  1  0.50000156  0.00000092  0.00000695  1
  Mg  Mg33  1  0.00000062  0.50000193  0.50000848  1
  Ca  Ca34  1  -0.00000007  0.00000194  0.50000693  1
  Ca  Ca35  1  0.49999981  0.50000097  0.00000790  1
  I  I36  1  0.48166441  0.24309658  0.94844663  1
  I  I37  1  0.19749237  0.00955670  0.17847675  1
  I  I38  1  0.68009716  0.01386849  0.30641507  1
  I  I39  1  0.98113446  0.25690493  0.55183121  1
  I  I40  1  0.31990262  0.98613561  0.69360004  1
  I  I41  1  0.80251067  0.99044416  0.82153887  1
  I  I42  1  0.51833963  0.75690587  0.05156645  1
  I  I43  1  0.69752890  0.49043284  0.32145553  1
  I  I44  1  0.18015671  0.48612371  0.19362121  1
  I  I45  1  0.01886304  0.74309867  0.44818318  1
  I  I46  1  0.30247251  0.50957088  0.67855792  1
  I  I47  1  0.81984183  0.51388002  0.80639196  1
