# generated using pymatgen
data_GaH10RhC2(I3N2)2
_symmetry_space_group_name_H-M   'P 1'
_cell_length_a   8.40701989
_cell_length_b   11.37515780
_cell_length_c   8.39621607
_cell_angle_alpha   90.10958601
_cell_angle_beta   89.99976737
_cell_angle_gamma   89.99661968
_symmetry_Int_Tables_number   1
_chemical_formula_structural   GaH10RhC2(I3N2)2
_chemical_formula_sum   'Ga2 H20 Rh2 C4 I12 N8'
_cell_volume   802.93856264
_cell_formula_units_Z   2
loop_
 _symmetry_equiv_pos_site_id
 _symmetry_equiv_pos_as_xyz
  1  'x, y, z'
loop_
 _atom_site_type_symbol
 _atom_site_label
 _atom_site_symmetry_multiplicity
 _atom_site_fract_x
 _atom_site_fract_y
 _atom_site_fract_z
 _atom_site_occupancy
  C  C0  1  0.49424578  0.29038505  0.49650842  1
  C  C1  1  0.99430747  0.20960505  0.00350618  1
  C  C2  1  0.50559158  0.79039136  0.50389588  1
  C  C3  1  0.00551545  0.70961637  0.99608487  1
  N  N4  1  0.59360439  0.23812195  0.59334047  1
  N  N5  1  0.39826188  0.23724633  0.39706981  1
  N  N6  1  0.09370037  0.26186956  0.90671211  1
  N  N7  1  0.89831300  0.26274335  0.10293890  1
  N  N8  1  0.60268343  0.73722117  0.60199044  1
  N  N9  1  0.40525519  0.73815761  0.40782929  1
  N  N10  1  0.10262854  0.76279040  0.89800988  1
  N  N11  1  0.90515536  0.76184860  0.09212842  1
  H  H12  1  0.49081234  0.38610189  0.49913343  1
  H  H13  1  0.66272236  0.28852114  0.66673684  1
  H  H14  1  0.60774475  0.14903076  0.59895041  1
  H  H15  1  0.32618200  0.28737101  0.32641052  1
  H  H16  1  0.38913571  0.14798745  0.38653523  1
  H  H17  1  0.99085511  0.11389020  0.00084952  1
  H  H18  1  0.16282689  0.21146784  0.83331379  1
  H  H19  1  0.10786691  0.35095860  0.90113945  1
  H  H20  1  0.82621288  0.21261925  0.17357151  1
  H  H21  1  0.88919885  0.35200116  0.11349630  1
  H  H22  1  0.50888860  0.88611274  0.50184152  1
  H  H23  1  0.67660284  0.78738063  0.67098380  1
  H  H24  1  0.60852920  0.64805293  0.61537012  1
  H  H25  1  0.33448984  0.78851264  0.33627497  1
  H  H26  1  0.39456947  0.64896007  0.39827957  1
  H  H27  1  0.00882148  0.61389562  0.99812976  1
  H  H28  1  0.17657097  0.71263428  0.82902905  1
  H  H29  1  0.10847055  0.85196269  0.88464398  1
  H  H30  1  0.83437632  0.71148823  0.16365743  1
  H  H31  1  0.89444725  0.85104049  0.10167464  1
  Ga  Ga32  1  0.49877742  0.99995707  0.99891654  1
  Ga  Ga33  1  0.99881694  0.50007022  0.50114715  1
  Rh  Rh34  1  0.00039398  0.00001595  0.49854006  1
  Rh  Rh35  1  0.50038601  0.49999668  0.00146835  1
  I  I36  1  0.49804403  0.25873086  0.99746637  1
  I  I37  1  0.19909165  0.98916054  0.23994757  1
  I  I38  1  0.74266955  0.00919503  0.29878532  1
  I  I39  1  0.99799576  0.24128110  0.50258250  1
  I  I40  1  0.25869346  0.01163692  0.69722823  1
  I  I41  1  0.80102342  0.98994985  0.75640216  1
  I  I42  1  0.50202646  0.74126756  0.00335466  1
  I  I43  1  0.69908232  0.51083569  0.26004875  1
  I  I44  1  0.24265565  0.49083206  0.20121846  1
  I  I45  1  0.00207658  0.75874289  0.49659530  1
  I  I46  1  0.30101769  0.51006142  0.74359580  1
  I  I47  1  0.75868167  0.48834267  0.80277102  1
