# generated using pymatgen
data_YGaH10C2(I3N2)2
_symmetry_space_group_name_H-M   'P 1'
_cell_length_a   8.62631907
_cell_length_b   12.15420869
_cell_length_c   8.61903746
_cell_angle_alpha   90.05140222
_cell_angle_beta   89.99989005
_cell_angle_gamma   89.99664345
_symmetry_Int_Tables_number   1
_chemical_formula_structural   YGaH10C2(I3N2)2
_chemical_formula_sum   'Y2 Ga2 H20 C4 I12 N8'
_cell_volume   903.67194485
_cell_formula_units_Z   2
loop_
 _symmetry_equiv_pos_site_id
 _symmetry_equiv_pos_as_xyz
  1  'x, y, z'
loop_
 _atom_site_type_symbol
 _atom_site_label
 _atom_site_symmetry_multiplicity
 _atom_site_fract_x
 _atom_site_fract_y
 _atom_site_fract_z
 _atom_site_occupancy
  C  C0  1  0.49301508  0.28869359  0.49637530  1
  C  C1  1  0.99308312  0.21129398  0.00364009  1
  C  C2  1  0.50675262  0.78867509  0.50388342  1
  C  C3  1  0.00667520  0.71133045  0.99608689  1
  N  N4  1  0.59045608  0.23963697  0.59059338  1
  N  N5  1  0.39925858  0.23912584  0.39892711  1
  N  N6  1  0.09055445  0.26034896  0.90946934  1
  N  N7  1  0.89929893  0.26086227  0.10107639  1
  N  N8  1  0.60143422  0.73915239  0.60030656  1
  N  N9  1  0.40857815  0.73957650  0.41031192  1
  N  N10  1  0.10137933  0.76085718  0.89970209  1
  N  N11  1  0.90846728  0.76042686  0.08964046  1
  H  H12  1  0.48934549  0.37837134  0.49957846  1
  H  H13  1  0.65856428  0.28614860  0.66190179  1
  H  H14  1  0.60324103  0.15625002  0.59539582  1
  H  H15  1  0.32798928  0.28569060  0.33077251  1
  H  H16  1  0.39243933  0.15564490  0.38794743  1
  H  H17  1  0.98940435  0.12161780  0.00041158  1
  H  H18  1  0.15869462  0.21383660  0.83817864  1
  H  H19  1  0.10337092  0.34373691  0.90471014  1
  H  H20  1  0.82800659  0.21429717  0.16919586  1
  H  H21  1  0.89248489  0.34433953  0.11207259  1
  H  H22  1  0.51021495  0.87836096  0.50093800  1
  H  H23  1  0.67327152  0.78577520  0.66793907  1
  H  H24  1  0.60692215  0.65570966  0.61250368  1
  H  H25  1  0.33994023  0.78603255  0.33958839  1
  H  H26  1  0.39760360  0.65613377  0.40356602  1
  H  H27  1  0.01013773  0.62164578  0.99901753  1
  H  H28  1  0.17323875  0.71423808  0.83208016  1
  H  H29  1  0.10686520  0.84429980  0.88752158  1
  H  H30  1  0.83979806  0.71396775  0.16032087  1
  H  H31  1  0.89746445  0.84387032  0.09637820  1
  Ga  Ga32  1  0.49980094  0.99990987  0.99866276  1
  Ga  Ga33  1  0.99980482  0.50011799  0.50136632  1
  Y  Y34  1  0.00084055  0.00007914  0.49870337  1
  Y  Y35  1  0.50083172  0.49994153  0.00130835  1
  I  I36  1  0.49769956  0.25547784  0.99428627  1
  I  I37  1  0.19709766  0.98776170  0.20766704  1
  I  I38  1  0.70923674  0.01668683  0.30215556  1
  I  I39  1  0.99766591  0.24453924  0.50575879  1
  I  I40  1  0.29095781  0.01319760  0.69574731  1
  I  I41  1  0.80362865  0.98242604  0.78956482  1
  I  I42  1  0.50178792  0.74446965  0.00612940  1
  I  I43  1  0.69707824  0.51222979  0.29235061  1
  I  I44  1  0.20921793  0.48334457  0.19783921  1
  I  I45  1  0.00182984  0.75555060  0.49382890  1
  I  I46  1  0.30364154  0.51760001  0.71043297  1
  I  I47  1  0.79094903  0.48678314  0.80427180  1
