# generated using pymatgen
data_GaAsH10C2(I3N2)2
_symmetry_space_group_name_H-M   'P 1'
_cell_length_a   8.49532416
_cell_length_b   11.72756458
_cell_length_c   8.48537262
_cell_angle_alpha   90.14384650
_cell_angle_beta   89.99888906
_cell_angle_gamma   89.99708753
_symmetry_Int_Tables_number   1
_chemical_formula_structural   GaAsH10C2(I3N2)2
_chemical_formula_sum   'Ga2 As2 H20 C4 I12 N8'
_cell_volume   845.39044893
_cell_formula_units_Z   2
loop_
 _symmetry_equiv_pos_site_id
 _symmetry_equiv_pos_as_xyz
  1  'x, y, z'
loop_
 _atom_site_type_symbol
 _atom_site_label
 _atom_site_symmetry_multiplicity
 _atom_site_fract_x
 _atom_site_fract_y
 _atom_site_fract_z
 _atom_site_occupancy
  C  C0  1  0.49362998  0.28930492  0.49660518  1
  C  C1  1  0.99369750  0.21068244  0.00340610  1
  C  C2  1  0.50612510  0.78930034  0.50376312  1
  C  C3  1  0.00605176  0.71070609  0.99621346  1
  N  N4  1  0.59240071  0.23849656  0.59204936  1
  N  N5  1  0.39843287  0.23797439  0.39786561  1
  N  N6  1  0.09250080  0.26149190  0.90800131  1
  N  N7  1  0.89848037  0.26201170  0.10213960  1
  N  N8  1  0.60191021  0.73793509  0.60148580  1
  N  N9  1  0.40652812  0.73853101  0.40873493  1
  N  N10  1  0.10186049  0.76207495  0.89852068  1
  N  N11  1  0.90642084  0.76147178  0.09122011  1
  H  H12  1  0.48991002  0.38219625  0.49987129  1
  H  H13  1  0.66116716  0.28706745  0.66462878  1
  H  H14  1  0.60620617  0.15210567  0.59736069  1
  H  H15  1  0.32660911  0.28659491  0.32845260  1
  H  H16  1  0.39076521  0.15145579  0.38598624  1
  H  H17  1  0.98996583  0.11779222  0.00011191  1
  H  H18  1  0.16130245  0.21292018  0.83544669  1
  H  H19  1  0.10633900  0.34788042  0.90273815  1
  H  H20  1  0.82662044  0.21339193  0.17151153  1
  H  H21  1  0.89081399  0.34853007  0.11403408  1
  H  H22  1  0.50997528  0.88218744  0.50095321  1
  H  H23  1  0.67510467  0.78655542  0.66978059  1
  H  H24  1  0.60788358  0.65148538  0.61454203  1
  H  H25  1  0.33696294  0.78704746  0.33719378  1
  H  H26  1  0.39484048  0.65205735  0.40080393  1
  H  H27  1  0.00990974  0.61781849  0.99901123  1
  H  H28  1  0.17506319  0.71346128  0.83022531  1
  H  H29  1  0.10782185  0.84852763  0.88547497  1
  H  H30  1  0.83684535  0.71294960  0.16274692  1
  H  H31  1  0.89471094  0.84794369  0.09915507  1
  Ga  Ga32  1  0.50381240  0.99953237  0.00048265  1
  Ga  Ga33  1  0.00384418  0.50058994  0.49955122  1
  As  As34  1  0.00348152  0.00052730  0.49850825  1
  As  As35  1  0.50348814  0.49957732  0.00151317  1
  I  I36  1  0.49729723  0.25469926  0.99619934  1
  I  I37  1  0.20635310  0.98954824  0.22458395  1
  I  I38  1  0.72454052  0.01158558  0.29002440  1
  I  I39  1  0.99725691  0.24526288  0.50384361  1
  I  I40  1  0.27314526  0.01119323  0.70494046  1
  I  I41  1  0.79179296  0.98798273  0.77327483  1
  I  I42  1  0.50116451  0.74570561  0.00389886  1
  I  I43  1  0.70633050  0.51043402  0.27542097  1
  I  I44  1  0.22451895  0.48842278  0.20998003  1
  I  I45  1  0.00120791  0.75425571  0.49605883  1
  I  I46  1  0.29179602  0.51201915  0.72672642  1
  I  I47  1  0.77313309  0.48877706  0.79506350  1
