# generated using pymatgen
data_GeH10PbC2(I3N2)2
_symmetry_space_group_name_H-M   'P 1'
_cell_length_a   8.62833734
_cell_length_b   12.08608389
_cell_length_c   8.62035964
_cell_angle_alpha   89.89153100
_cell_angle_beta   89.99953525
_cell_angle_gamma   90.00090117
_symmetry_Int_Tables_number   1
_chemical_formula_structural   GeH10PbC2(I3N2)2
_chemical_formula_sum   'Ge2 H20 Pb2 C4 I12 N8'
_cell_volume   898.95370612
_cell_formula_units_Z   2
loop_
 _symmetry_equiv_pos_site_id
 _symmetry_equiv_pos_as_xyz
  1  'x, y, z'
loop_
 _atom_site_type_symbol
 _atom_site_label
 _atom_site_symmetry_multiplicity
 _atom_site_fract_x
 _atom_site_fract_y
 _atom_site_fract_z
 _atom_site_occupancy
  C  C0  1  0.49348781  0.28832780  0.49606090  1
  C  C1  1  0.99354758  0.21166058  0.00395544  1
  C  C2  1  0.50660570  0.78835820  0.50371255  1
  C  C3  1  0.00653984  0.71165557  0.99626974  1
  N  N4  1  0.59157987  0.23916849  0.58983679  1
  N  N5  1  0.39917644  0.23860912  0.39939689  1
  N  N6  1  0.09166684  0.26082451  0.91021104  1
  N  N7  1  0.89922129  0.26137499  0.10060755  1
  N  N8  1  0.60056014  0.73857923  0.60089556  1
  N  N9  1  0.40905837  0.73925279  0.40955194  1
  N  N10  1  0.10051162  0.76143225  0.89910696  1
  N  N11  1  0.90896573  0.76074734  0.09040585  1
  H  H12  1  0.48972607  0.37850001  0.49894277  1
  H  H13  1  0.66085802  0.28622469  0.65944940  1
  H  H14  1  0.60217922  0.15522876  0.59820864  1
  H  H15  1  0.32647997  0.28570764  0.33291562  1
  H  H16  1  0.39451467  0.15474209  0.38561709  1
  H  H17  1  0.98977485  0.12148934  0.00105553  1
  H  H18  1  0.16095992  0.21377169  0.84060778  1
  H  H19  1  0.10229226  0.34476465  0.90187054  1
  H  H20  1  0.82650656  0.21427423  0.16707320  1
  H  H21  1  0.89457024  0.34524128  0.11440306  1
  H  H22  1  0.51013906  0.87853866  0.50069802  1
  H  H23  1  0.67049439  0.78565275  0.67004712  1
  H  H24  1  0.60896045  0.65456890  0.61123403  1
  H  H25  1  0.34214540  0.78635198  0.33744013  1
  H  H26  1  0.39482901  0.65545143  0.40512615  1
  H  H27  1  0.01008069  0.62146511  0.99928660  1
  H  H28  1  0.17047410  0.71436077  0.82996859  1
  H  H29  1  0.10890857  0.84543532  0.88877313  1
  H  H30  1  0.84202981  0.71364266  0.16249098  1
  H  H31  1  0.89470456  0.84455064  0.09481922  1
  Ge  Ge32  1  0.49740658  0.99980565  0.99889541  1
  Ge  Ge33  1  0.99742154  0.50024836  0.50112693  1
  Pb  Pb34  1  0.99961631  0.00016742  0.49915837  1
  Pb  Pb35  1  0.49961856  0.49987605  0.00086270  1
  I  I36  1  0.49813097  0.24186168  0.99484276  1
  I  I37  1  0.21799966  0.98784953  0.19969337  1
  I  I38  1  0.70239711  0.01456392  0.28052077  1
  I  I39  1  0.99808778  0.25814135  0.50519517  1
  I  I40  1  0.29844529  0.01138739  0.71593655  1
  I  I41  1  0.78246072  0.98604020  0.79557859  1
  I  I42  1  0.50279571  0.75830830  0.00475337  1
  I  I43  1  0.71797987  0.51214781  0.30032043  1
  I  I44  1  0.20238193  0.48543890  0.21947910  1
  I  I45  1  0.00283961  0.74169590  0.49520394  1
  I  I46  1  0.28245506  0.51397046  0.70442509  1
  I  I47  1  0.79843360  0.48860659  0.78407339  1
