# generated using pymatgen
data_BaGeH10C2(I3N2)2
_symmetry_space_group_name_H-M   'P 1'
_cell_length_a   8.74306345
_cell_length_b   12.46801933
_cell_length_c   8.73633543
_cell_angle_alpha   89.96739901
_cell_angle_beta   90.00006339
_cell_angle_gamma   89.99880212
_symmetry_Int_Tables_number   1
_chemical_formula_structural   BaGeH10C2(I3N2)2
_chemical_formula_sum   'Ba2 Ge2 H20 C4 I12 N8'
_cell_volume   952.33627466
_cell_formula_units_Z   2
loop_
 _symmetry_equiv_pos_site_id
 _symmetry_equiv_pos_as_xyz
  1  'x, y, z'
loop_
 _atom_site_type_symbol
 _atom_site_label
 _atom_site_symmetry_multiplicity
 _atom_site_fract_x
 _atom_site_fract_y
 _atom_site_fract_z
 _atom_site_occupancy
  C  C0  1  0.49274397  0.28875617  0.49632332  1
  C  C1  1  0.99281262  0.21122855  0.00370449  1
  C  C2  1  0.50725538  0.78876367  0.50354490  1
  C  C3  1  0.00717734  0.71124234  0.99641806  1
  N  N4  1  0.58957453  0.24053704  0.58833238  1
  N  N5  1  0.39939013  0.24039882  0.40095884  1
  N  N6  1  0.08968202  0.25945191  0.91172969  1
  N  N7  1  0.89943634  0.25958243  0.09904023  1
  N  N8  1  0.59984432  0.74032763  0.59967118  1
  N  N9  1  0.41118162  0.74061972  0.41076600  1
  N  N10  1  0.09978952  0.75968432  0.90033535  1
  N  N11  1  0.91106104  0.75938212  0.08917564  1
  H  H12  1  0.48921317  0.37618352  0.49967425  1
  H  H13  1  0.65903303  0.28516401  0.65718701  1
  H  H14  1  0.59729696  0.15903997  0.59631615  1
  H  H15  1  0.32681531  0.28532923  0.33550060  1
  H  H16  1  0.39777904  0.15914338  0.38638527  1
  H  H17  1  0.98928413  0.12380220  0.00033286  1
  H  H18  1  0.15917395  0.21482552  0.84290916  1
  H  H19  1  0.09743189  0.34094791  0.90379125  1
  H  H20  1  0.82683154  0.21465220  0.16446790  1
  H  H21  1  0.89782319  0.34083802  0.11362673  1
  H  H22  1  0.51069882  0.87619595  0.50031867  1
  H  H23  1  0.66903385  0.78525007  0.66859207  1
  H  H24  1  0.60850718  0.65882818  0.60713915  1
  H  H25  1  0.34491922  0.78526521  0.33874157  1
  H  H26  1  0.39655293  0.65937783  0.40969602  1
  H  H27  1  0.01061628  0.62380931  0.99963905  1
  H  H28  1  0.16900807  0.71476417  0.83142816  1
  H  H29  1  0.10845135  0.84118155  0.89287855  1
  H  H30  1  0.84476684  0.71473303  0.16115506  1
  H  H31  1  0.89640887  0.84062320  0.09022999  1
  Ge  Ge32  1  0.49912213  0.99991328  0.99893321  1
  Ge  Ge33  1  0.99912312  0.50011083  0.50109274  1
  Ba  Ba34  1  0.00014027  0.00010362  0.49854058  1
  Ba  Ba35  1  0.50013067  0.49992187  0.00147895  1
  I  I36  1  0.49792935  0.23571734  0.99251112  1
  I  I37  1  0.21043830  0.98582460  0.17895806  1
  I  I38  1  0.67948478  0.02104050  0.29010662  1
  I  I39  1  0.99791260  0.26430647  0.50754022  1
  I  I40  1  0.31956183  0.01301405  0.70923647  1
  I  I41  1  0.79110206  0.97998970  0.81891110  1
  I  I42  1  0.50245539  0.76420784  0.00733634  1
  I  I43  1  0.71041591  0.51415296  0.32107245  1
  I  I44  1  0.17946538  0.47897989  0.20989738  1
  I  I45  1  0.00247892  0.73581601  0.49259810  1
  I  I46  1  0.29111078  0.52005490  0.68109357  1
  I  I47  1  0.81955339  0.48697993  0.79078831  1
