# generated using pymatgen
data_SnGeH10C2(I3N2)2
_symmetry_space_group_name_H-M   'P 1'
_cell_length_a   8.57564323
_cell_length_b   11.98258975
_cell_length_c   8.56725993
_cell_angle_alpha   89.93024441
_cell_angle_beta   89.99853575
_cell_angle_gamma   89.99861156
_symmetry_Int_Tables_number   1
_chemical_formula_structural   SnGeH10C2(I3N2)2
_chemical_formula_sum   'Sn2 Ge2 H20 C4 I12 N8'
_cell_volume   880.35739605
_cell_formula_units_Z   2
loop_
 _symmetry_equiv_pos_site_id
 _symmetry_equiv_pos_as_xyz
  1  'x, y, z'
loop_
 _atom_site_type_symbol
 _atom_site_label
 _atom_site_symmetry_multiplicity
 _atom_site_fract_x
 _atom_site_fract_y
 _atom_site_fract_z
 _atom_site_occupancy
  C  C0  1  0.49347226  0.28884617  0.49621271  1
  C  C1  1  0.99353821  0.21114232  0.00380053  1
  C  C2  1  0.50656811  0.78885962  0.50360803  1
  C  C3  1  0.00650877  0.71114461  0.99635504  1
  N  N4  1  0.59197403  0.23910155  0.59056485  1
  N  N5  1  0.39864029  0.23857494  0.39897036  1
  N  N6  1  0.09206826  0.26088843  0.90949136  1
  N  N7  1  0.89868063  0.26140798  0.10103411  1
  N  N8  1  0.60122615  0.73857276  0.60120206  1
  N  N9  1  0.40845891  0.73913679  0.40902899  1
  N  N10  1  0.10116285  0.76144101  0.89881100  1
  N  N11  1  0.90834431  0.76086635  0.09093479  1
  H  H12  1  0.48979203  0.37979730  0.49913647  1
  H  H13  1  0.66120587  0.28639214  0.66140538  1
  H  H14  1  0.60313117  0.15445035  0.59785961  1
  H  H15  1  0.32611810  0.28596051  0.33122580  1
  H  H16  1  0.39322492  0.15394804  0.38617956  1
  H  H17  1  0.98984530  0.12019095  0.00085645  1
  H  H18  1  0.16132519  0.21359859  0.83865876  1
  H  H19  1  0.10325615  0.34554126  0.90223295  1
  H  H20  1  0.82613877  0.21402137  0.16875478  1
  H  H21  1  0.89327542  0.34603724  0.11384255  1
  H  H22  1  0.51006737  0.87982320  0.50062600  1
  H  H23  1  0.67245178  0.78595102  0.67013285  1
  H  H24  1  0.60870354  0.65387195  0.61212651  1
  H  H25  1  0.34020287  0.78645387  0.33709956  1
  H  H26  1  0.39530142  0.65455222  0.40392420  1
  H  H27  1  0.01000130  0.62018512  0.99934432  1
  H  H28  1  0.17243228  0.71406801  0.82988432  1
  H  H29  1  0.10864632  0.84614651  0.88788869  1
  H  H30  1  0.84006841  0.71353901  0.16281818  1
  H  H31  1  0.89516576  0.84544668  0.09601484  1
  Ge  Ge32  1  0.49735711  0.99937470  0.99966241  1
  Ge  Ge33  1  0.99739049  0.50076643  0.50035947  1
  Sn  Sn34  1  0.99969070  0.00058316  0.49988733  1
  Sn  Sn35  1  0.49970616  0.49952976  0.00014319  1
  I  I36  1  0.49812492  0.24490457  0.99495964  1
  I  I37  1  0.21636235  0.98756804  0.20237053  1
  I  I38  1  0.70457047  0.01512053  0.28293826  1
  I  I39  1  0.99809091  0.25504659  0.50508715  1
  I  I40  1  0.29566954  0.01208324  0.71413098  1
  I  I41  1  0.78523250  0.98511783  0.79322968  1
  I  I42  1  0.50251107  0.75582625  0.00477006  1
  I  I43  1  0.71633281  0.51240506  0.29764459  1
  I  I44  1  0.20455144  0.48487610  0.21706604  1
  I  I45  1  0.00255332  0.74412650  0.49518142  1
  I  I46  1  0.28522657  0.51488571  0.70676731  1
  I  I47  1  0.79565225  0.48789061  0.78588111  1
