# generated using pymatgen
data_CdGeH10C2(I3N2)2
_symmetry_space_group_name_H-M   'P 1'
_cell_length_a   8.51354039
_cell_length_b   11.69629827
_cell_length_c   8.50705618
_cell_angle_alpha   89.93368570
_cell_angle_beta   89.99920171
_cell_angle_gamma   89.99922955
_symmetry_Int_Tables_number   1
_chemical_formula_structural   CdGeH10C2(I3N2)2
_chemical_formula_sum   'Cd2 Ge2 H20 C4 I12 N8'
_cell_volume   847.10578160
_cell_formula_units_Z   2
loop_
 _symmetry_equiv_pos_site_id
 _symmetry_equiv_pos_as_xyz
  1  'x, y, z'
loop_
 _atom_site_type_symbol
 _atom_site_label
 _atom_site_symmetry_multiplicity
 _atom_site_fract_x
 _atom_site_fract_y
 _atom_site_fract_z
 _atom_site_occupancy
  C  C0  1  0.49383748  0.28899421  0.49610080  1
  C  C1  1  0.99390050  0.21099423  0.00391426  1
  C  C2  1  0.50641215  0.78902165  0.50369968  1
  C  C3  1  0.00634198  0.71098675  0.99627884  1
  N  N4  1  0.59316628  0.23843571  0.59121710  1
  N  N5  1  0.39831415  0.23753480  0.39835659  1
  N  N6  1  0.09326140  0.26155621  0.90882924  1
  N  N7  1  0.89836556  0.26244957  0.10164940  1
  N  N8  1  0.60162365  0.73754658  0.60195271  1
  N  N9  1  0.40769909  0.73846550  0.40816279  1
  N  N10  1  0.10157173  0.76246522  0.89804682  1
  N  N11  1  0.90759411  0.76153373  0.09179541  1
  H  H12  1  0.48996482  0.38211357  0.49875856  1
  H  H13  1  0.66197721  0.28761740  0.66264832  1
  H  H14  1  0.60589881  0.15179800  0.59887366  1
  H  H15  1  0.32595027  0.28658930  0.32997403  1
  H  H16  1  0.39116408  0.15084150  0.38593120  1
  H  H17  1  0.99001374  0.11787515  0.00123342  1
  H  H18  1  0.16208283  0.21237380  0.83740079  1
  H  H19  1  0.10601917  0.34819336  0.90121106  1
  H  H20  1  0.82598357  0.21339660  0.17001369  1
  H  H21  1  0.89122411  0.34914018  0.11409474  1
  H  H22  1  0.51001361  0.88214302  0.50099354  1
  H  H23  1  0.67332043  0.78658490  0.67089442  1
  H  H24  1  0.60894905  0.65083364  0.61432419  1
  H  H25  1  0.33890852  0.78768484  0.33659066  1
  H  H26  1  0.39448701  0.65185048  0.40111376  1
  H  H27  1  0.00995533  0.61785855  0.99898403  1
  H  H28  1  0.17329580  0.71343102  0.82912413  1
  H  H29  1  0.10889209  0.84917755  0.88568458  1
  H  H30  1  0.83878891  0.71230673  0.16333964  1
  H  H31  1  0.89435485  0.84814135  0.09883089  1
  Ge  Ge32  1  0.49623513  0.99978911  0.99812568  1
  Ge  Ge33  1  0.99626253  0.50026082  0.50192034  1
  Cd  Cd34  1  0.99764902  0.00015609  0.49931182  1
  Cd  Cd35  1  0.49765802  0.49988450  0.00073886  1
  I  I36  1  0.49876596  0.25092412  0.99598765  1
  I  I37  1  0.21746235  0.98772627  0.21098079  1
  I  I38  1  0.71411019  0.01235172  0.28057142  1
  I  I39  1  0.99871690  0.24909511  0.50405030  1
  I  I40  1  0.28793348  0.01218871  0.71516815  1
  I  I41  1  0.78300573  0.98745737  0.78478094  1
  I  I42  1  0.50318493  0.74900323  0.00416715  1
  I  I43  1  0.71745275  0.51226866  0.28902576  1
  I  I44  1  0.21409878  0.48765634  0.21942083  1
  I  I45  1  0.00324185  0.75101800  0.49577605  1
  I  I46  1  0.28299448  0.51254936  0.71521957  1
  I  I47  1  0.78791497  0.48779844  0.78483649  1
