# generated using pymatgen
data_SrGeH10C2(I3N2)2
_symmetry_space_group_name_H-M   'P 1'
_cell_length_a   8.64589753
_cell_length_b   12.21834164
_cell_length_c   8.63900863
_cell_angle_alpha   89.95152821
_cell_angle_beta   90.00029704
_cell_angle_gamma   89.99985437
_symmetry_Int_Tables_number   1
_chemical_formula_structural   SrGeH10C2(I3N2)2
_chemical_formula_sum   'Sr2 Ge2 H20 C4 I12 N8'
_cell_volume   912.61184404
_cell_formula_units_Z   2
loop_
 _symmetry_equiv_pos_site_id
 _symmetry_equiv_pos_as_xyz
  1  'x, y, z'
loop_
 _atom_site_type_symbol
 _atom_site_label
 _atom_site_symmetry_multiplicity
 _atom_site_fract_x
 _atom_site_fract_y
 _atom_site_fract_z
 _atom_site_occupancy
  C  C0  1  0.49302218  0.28868048  0.49623653  1
  C  C1  1  0.99308921  0.21130670  0.00378340  1
  C  C2  1  0.50698471  0.78869594  0.50365628  1
  C  C3  1  0.00690830  0.71131003  0.99631864  1
  N  N4  1  0.59079569  0.23977180  0.58969753  1
  N  N5  1  0.39893329  0.23941255  0.39963251  1
  N  N6  1  0.09089419  0.26021880  0.91035791  1
  N  N7  1  0.89897696  0.26057152  0.10037040  1
  N  N8  1  0.60081000  0.73938081  0.60061025  1
  N  N9  1  0.40956221  0.73982991  0.40992301  1
  N  N10  1  0.10075964  0.76063310  0.89939286  1
  N  N11  1  0.90945411  0.76017010  0.09002532  1
  H  H12  1  0.48935828  0.37790012  0.49943024  1
  H  H13  1  0.66007369  0.28577864  0.65969943  1
  H  H14  1  0.60049593  0.15668563  0.59712673  1
  H  H15  1  0.32637557  0.28559942  0.33288732  1
  H  H16  1  0.39524159  0.15644633  0.38609263  1
  H  H17  1  0.98941914  0.12208772  0.00057216  1
  H  H18  1  0.16019750  0.21421317  0.84038257  1
  H  H19  1  0.10062141  0.34330535  0.90296870  1
  H  H20  1  0.82639733  0.21438409  0.16708647  1
  H  H21  1  0.89528834  0.34353707  0.11392254  1
  H  H22  1  0.51055400  0.87791831  0.50045609  1
  H  H23  1  0.67122893  0.78556978  0.66946972  1
  H  H24  1  0.60867915  0.65626829  0.61002359  1
  H  H25  1  0.34223332  0.78584237  0.33792331  1
  H  H26  1  0.39578486  0.65689424  0.40665992  1
  H  H27  1  0.01048221  0.62208713  0.99951110  1
  H  H28  1  0.17119990  0.71444896  0.83055276  1
  H  H29  1  0.10862260  0.84374568  0.88999385  1
  H  H30  1  0.84209526  0.71415352  0.16198643  1
  H  H31  1  0.89564771  0.84310438  0.09327437  1
  Ge  Ge32  1  0.49878668  0.99994069  0.99871523  1
  Ge  Ge33  1  0.99879076  0.50008125  0.50130994  1
  Sr  Sr34  1  0.00022882  0.00007438  0.49861671  1
  Sr  Sr35  1  0.50022112  0.49994717  0.00139929  1
  I  I36  1  0.49791482  0.24093271  0.99358107  1
  I  I37  1  0.21113367  0.98674824  0.19114845  1
  I  I38  1  0.69249450  0.01819930  0.28839570  1
  I  I39  1  0.99788405  0.25908618  0.50646624  1
  I  I40  1  0.30735437  0.01248032  0.70978831  1
  I  I41  1  0.78958413  0.98248681  0.80588105  1
  I  I42  1  0.50244010  0.75904048  0.00620362  1
  I  I43  1  0.71111393  0.51323885  0.30887416  1
  I  I44  1  0.19247780  0.48181928  0.21160571  1
  I  I45  1  0.00247236  0.74097856  0.49374343  1
  I  I46  1  0.28958977  0.51754403  0.69412189  1
  I  I47  1  0.80734530  0.48751277  0.79022937  1
