# generated using pymatgen
data_TlAsH10C2(I3N2)2
_symmetry_space_group_name_H-M   'P 1'
_cell_length_a   8.64170882
_cell_length_b   12.07970871
_cell_length_c   8.63144281
_cell_angle_alpha   89.85067804
_cell_angle_beta   90.00053590
_cell_angle_gamma   90.00071439
_symmetry_Int_Tables_number   1
_chemical_formula_structural   TlAsH10C2(I3N2)2
_chemical_formula_sum   'Tl2 As2 H20 C4 I12 N8'
_cell_volume   901.02743139
_cell_formula_units_Z   2
loop_
 _symmetry_equiv_pos_site_id
 _symmetry_equiv_pos_as_xyz
  1  'x, y, z'
loop_
 _atom_site_type_symbol
 _atom_site_label
 _atom_site_symmetry_multiplicity
 _atom_site_fract_x
 _atom_site_fract_y
 _atom_site_fract_z
 _atom_site_occupancy
  C  C0  1  0.49391084  0.28810362  0.49598169  1
  C  C1  1  0.99396935  0.21189492  0.00403150  1
  C  C2  1  0.50632773  0.78814387  0.50339949  1
  C  C3  1  0.00628571  0.71185718  0.99657454  1
  N  N4  1  0.59220582  0.23869910  0.58916408  1
  N  N5  1  0.39927277  0.23834657  0.39994221  1
  N  N6  1  0.09227005  0.26130462  0.91089117  1
  N  N7  1  0.89931189  0.26163937  0.10007037  1
  N  N8  1  0.59957570  0.73838182  0.60121054  1
  N  N9  1  0.40928523  0.73878619  0.40931146  1
  N  N10  1  0.09953126  0.76162530  0.89879278  1
  N  N11  1  0.90920077  0.76122411  0.09064646  1
  H  H12  1  0.49029358  0.37834331  0.49887247  1
  H  H13  1  0.66212943  0.28554722  0.65817725  1
  H  H14  1  0.60195734  0.15470538  0.59836543  1
  H  H15  1  0.32601134  0.28535884  0.33406128  1
  H  H16  1  0.39541312  0.15450258  0.38526755  1
  H  H17  1  0.99033806  0.12165016  0.00112797  1
  H  H18  1  0.16221931  0.21445182  0.84188235  1
  H  H19  1  0.10205158  0.34529266  0.90171271  1
  H  H20  1  0.82603285  0.21462722  0.16593280  1
  H  H21  1  0.89546071  0.34548918  0.11476209  1
  H  H22  1  0.51017034  0.87838626  0.49981201  1
  H  H23  1  0.66902516  0.78538891  0.67066534  1
  H  H24  1  0.60860675  0.65434926  0.61126256  1
  H  H25  1  0.34314820  0.78563244  0.33625850  1
  H  H26  1  0.39394762  0.65498655  0.40626295  1
  H  H27  1  0.01013061  0.62161922  0.00018470  1
  H  H28  1  0.16901076  0.71461937  0.82934856  1
  H  H29  1  0.10855719  0.84565773  0.88872740  1
  H  H30  1  0.84304964  0.71436239  0.16367994  1
  H  H31  1  0.89384224  0.84500960  0.09366911  1
  As  As32  1  0.49865301  0.99995744  0.99812204  1
  As  As33  1  0.99865177  0.50005495  0.50189283  1
  Tl  Tl34  1  0.99985574  0.00008283  0.49790489  1
  Tl  Tl35  1  0.49985358  0.49993042  0.00210647  1
  I  I36  1  0.49804601  0.23544058  0.99440422  1
  I  I37  1  0.22917910  0.98950361  0.19382609  1
  I  I38  1  0.69566847  0.01284801  0.26962488  1
  I  I39  1  0.99800399  0.26457104  0.50563372  1
  I  I40  1  0.30413849  0.00884310  0.72753790  1
  I  I41  1  0.77079865  0.98878411  0.80193727  1
  I  I42  1  0.50241895  0.76452657  0.00432150  1
  I  I43  1  0.72916360  0.51049577  0.30618880  1
  I  I44  1  0.19565776  0.48715055  0.23037552  1
  I  I45  1  0.00246033  0.73548451  0.49564117  1
  I  I46  1  0.27079396  0.51123239  0.69806900  1
  I  I47  1  0.80413297  0.49117033  0.77246922  1
