# generated using pymatgen
data_AgAsH10C2(I3N2)2
_symmetry_space_group_name_H-M   'P 1'
_cell_length_a   8.46617496
_cell_length_b   11.54727388
_cell_length_c   8.45821914
_cell_angle_alpha   89.84003520
_cell_angle_beta   89.99954222
_cell_angle_gamma   90.00060494
_symmetry_Int_Tables_number   1
_chemical_formula_structural   AgAsH10C2(I3N2)2
_chemical_formula_sum   'Ag2 As2 H20 C4 I12 N8'
_cell_volume   826.88277675
_cell_formula_units_Z   2
loop_
 _symmetry_equiv_pos_site_id
 _symmetry_equiv_pos_as_xyz
  1  'x, y, z'
loop_
 _atom_site_type_symbol
 _atom_site_label
 _atom_site_symmetry_multiplicity
 _atom_site_fract_x
 _atom_site_fract_y
 _atom_site_fract_z
 _atom_site_occupancy
  C  C0  1  0.49459082  0.28955581  0.49605894  1
  C  C1  1  0.99464767  0.21044400  0.00395511  1
  C  C2  1  0.50590561  0.78959953  0.50338240  1
  C  C3  1  0.00584072  0.71040212  0.99661050  1
  N  N4  1  0.59455784  0.23821869  0.59144471  1
  N  N5  1  0.39843275  0.23700761  0.39856130  1
  N  N6  1  0.09463299  0.26177379  0.90859866  1
  N  N7  1  0.89848267  0.26298012  0.10145108  1
  N  N8  1  0.60104030  0.73721846  0.60243467  1
  N  N9  1  0.40718294  0.73811765  0.40727196  1
  N  N10  1  0.10099436  0.76280197  0.89755811  1
  N  N11  1  0.90709547  0.76187878  0.09268843  1
  H  H12  1  0.49078338  0.38386755  0.49817113  1
  H  H13  1  0.66422406  0.28785323  0.66295610  1
  H  H14  1  0.60690472  0.15042153  0.59954195  1
  H  H15  1  0.32510095  0.28623461  0.32972108  1
  H  H16  1  0.39177965  0.14912420  0.38664455  1
  H  H17  1  0.99082250  0.11612653  0.00182407  1
  H  H18  1  0.16430585  0.21214496  0.83708682  1
  H  H19  1  0.10700829  0.34957656  0.90052283  1
  H  H20  1  0.82513516  0.21375531  0.17027450  1
  H  H21  1  0.89184257  0.35086760  0.11338459  1
  H  H22  1  0.50955495  0.88392006  0.50045600  1
  H  H23  1  0.67297183  0.78649835  0.67226657  1
  H  H24  1  0.60810178  0.64932333  0.61477194  1
  H  H25  1  0.33825428  0.78770353  0.33458818  1
  H  H26  1  0.39392867  0.65033787  0.40090870  1
  H  H27  1  0.00951561  0.61608615  0.99954004  1
  H  H28  1  0.17294589  0.71352276  0.82774886  1
  H  H29  1  0.10803512  0.85068858  0.88522503  1
  H  H30  1  0.83815679  0.71228351  0.16536416  1
  H  H31  1  0.89381045  0.84965522  0.09904109  1
  As  As32  1  0.49762855  0.99997018  0.99794152  1
  As  As33  1  0.99763395  0.50004514  0.50207662  1
  Ag  Ag34  1  0.99572176  0.00002584  0.49895867  1
  Ag  Ag35  1  0.49572653  0.49998914  0.00106661  1
  I  I36  1  0.49885949  0.24871886  0.99673701  1
  I  I37  1  0.22815947  0.98789036  0.21065250  1
  I  I38  1  0.71367796  0.01063875  0.26990959  1
  I  I39  1  0.99881257  0.25129342  0.50330718  1
  I  I40  1  0.28778923  0.01172669  0.72581481  1
  I  I41  1  0.77216211  0.98967239  0.78475510  1
  I  I42  1  0.50272795  0.75116707  0.00271687  1
  I  I43  1  0.72815190  0.51210441  0.28935265  1
  I  I44  1  0.21367406  0.48936385  0.23008753  1
  I  I45  1  0.00277948  0.74884591  0.49723790  1
  I  I46  1  0.27214984  0.51034127  0.71524892  1
  I  I47  1  0.78777783  0.48827972  0.77418721  1
