# generated using pymatgen
data_MgSiH12C2(I3N)2
_symmetry_space_group_name_H-M   'P 1'
_cell_length_a   8.25576355
_cell_length_b   11.78471854
_cell_length_c   8.16961693
_cell_angle_alpha   90.04643669
_cell_angle_beta   89.98997251
_cell_angle_gamma   89.99910851
_symmetry_Int_Tables_number   1
_chemical_formula_structural   MgSiH12C2(I3N)2
_chemical_formula_sum   'Mg2 Si2 H24 C4 I12 N4'
_cell_volume   794.83686996
_cell_formula_units_Z   2
loop_
 _symmetry_equiv_pos_site_id
 _symmetry_equiv_pos_as_xyz
  1  'x, y, z'
loop_
 _atom_site_type_symbol
 _atom_site_label
 _atom_site_symmetry_multiplicity
 _atom_site_fract_x
 _atom_site_fract_y
 _atom_site_fract_z
 _atom_site_occupancy
  C  C0  1  0.41183636  0.24965940  0.42056481  1
  C  C1  1  0.91243047  0.25034818  0.07959849  1
  C  C2  1  0.58815886  0.75034574  0.57942761  1
  C  C3  1  0.08757604  0.74965061  0.92044681  1
  N  N4  1  0.55546619  0.24989037  0.52881521  1
  N  N5  1  0.05576871  0.25007762  0.97090900  1
  N  N6  1  0.44453936  0.75011038  0.47116305  1
  N  N7  1  0.94425420  0.74992412  0.02915943  1
  H  H8  1  0.45294950  0.24913631  0.29326956  1
  H  H9  1  0.34028318  0.17372767  0.44574546  1
  H  H10  1  0.34065662  0.32596377  0.44469167  1
  H  H11  1  0.62652282  0.17885463  0.50572008  1
  H  H12  1  0.62630327  0.32100188  0.50565136  1
  H  H13  1  0.52446581  0.24994540  0.65278684  1
  H  H14  1  0.95390879  0.25090802  0.20675848  1
  H  H15  1  0.84118888  0.17403271  0.05575969  1
  H  H16  1  0.84080194  0.32627442  0.05461505  1
  H  H17  1  0.12663663  0.17895545  0.99386358  1
  H  H18  1  0.12691257  0.32109850  0.99377316  1
  H  H19  1  0.02444919  0.25001925  0.84702032  1
  H  H20  1  0.54703655  0.75088141  0.70672003  1
  H  H21  1  0.65933902  0.67403979  0.55531216  1
  H  H22  1  0.65971708  0.82627378  0.55423722  1
  H  H23  1  0.37347822  0.82114623  0.49424346  1
  H  H24  1  0.37369538  0.67900390  0.49431403  1
  H  H25  1  0.47555170  0.75004920  0.34719368  1
  H  H26  1  0.04608195  0.74907853  0.79329166  1
  H  H27  1  0.15881364  0.82597143  0.94426445  1
  H  H28  1  0.15921467  0.67373065  0.94544061  1
  H  H29  1  0.87337607  0.82103943  0.00621656  1
  H  H30  1  0.87310560  0.67890259  0.00632005  1
  H  H31  1  0.97559159  0.74998816  0.15304422  1
  Mg  Mg32  1  0.49987394  0.99996446  0.00005834  1
  Mg  Mg33  1  0.99988511  0.50003304  0.49978752  1
  Si  Si34  1  0.99992437  0.00005075  0.50016248  1
  Si  Si35  1  0.50004001  0.49997170  0.99973776  1
  I  I36  1  0.48759957  0.24999724  0.95519369  1
  I  I37  1  0.19598285  0.00903938  0.19339917  1
  I  I38  1  0.69510783  0.00917994  0.30525052  1
  I  I39  1  0.98714850  0.25001559  0.54484521  1
  I  I40  1  0.30493576  0.99082971  0.69472968  1
  I  I41  1  0.80408372  0.99096850  0.80654371  1
  I  I42  1  0.51244743  0.75003192  0.04477542  1
  I  I43  1  0.69597269  0.49096687  0.30656655  1
  I  I44  1  0.19503956  0.49078107  0.19476355  1
  I  I45  1  0.01288029  0.74997623  0.45524713  1
  I  I46  1  0.30405465  0.50902949  0.69356411  1
  I  I47  1  0.80493664  0.50921288  0.80533394  1
