# generated using pymatgen
data_SrH10PbC2(I3N2)2
_symmetry_space_group_name_H-M   'P 1'
_cell_length_a   8.75898754
_cell_length_b   12.57849118
_cell_length_c   8.76045128
_cell_angle_alpha   89.99817621
_cell_angle_beta   90.00035847
_cell_angle_gamma   89.99710933
_symmetry_Int_Tables_number   1
_chemical_formula_structural   SrH10PbC2(I3N2)2
_chemical_formula_sum   'Sr2 H20 Pb2 C4 I12 N8'
_cell_volume   965.18138234
_cell_formula_units_Z   2
loop_
 _symmetry_equiv_pos_site_id
 _symmetry_equiv_pos_as_xyz
  1  'x, y, z'
loop_
 _atom_site_type_symbol
 _atom_site_label
 _atom_site_symmetry_multiplicity
 _atom_site_fract_x
 _atom_site_fract_y
 _atom_site_fract_z
 _atom_site_occupancy
  C  C0  1  0.49220756  0.28952368  0.49621404  1
  C  C1  1  0.99223328  0.21057979  0.00378785  1
  C  C2  1  0.50785241  0.78941468  0.50376335  1
  C  C3  1  0.00773290  0.71047057  0.99621504  1
  N  N4  1  0.58875015  0.24194022  0.58836724  1
  N  N5  1  0.39968398  0.24116963  0.40087209  1
  N  N6  1  0.08881881  0.25815768  0.91169282  1
  N  N7  1  0.89969905  0.25893280  0.09913101  1
  N  N8  1  0.60034938  0.74105604  0.59913646  1
  N  N9  1  0.41131434  0.74183773  0.41163522  1
  N  N10  1  0.10028139  0.75884378  0.90087968  1
  N  N11  1  0.91118109  0.75803587  0.08833371  1
  H  H12  1  0.48835723  0.37622326  0.49936604  1
  H  H13  1  0.65653826  0.28618425  0.65856324  1
  H  H14  1  0.59991849  0.16122842  0.59235437  1
  H  H15  1  0.32844920  0.28526726  0.33376115  1
  H  H16  1  0.39531220  0.16036752  0.39065197  1
  H  H17  1  0.98834725  0.12388126  0.00058432  1
  H  H18  1  0.15662854  0.21392200  0.84150987  1
  H  H19  1  0.10004785  0.33887364  0.90777560  1
  H  H20  1  0.82843200  0.21483849  0.16619705  1
  H  H21  1  0.89535644  0.33973243  0.10940255  1
  H  H22  1  0.51172705  0.87611623  0.50056201  1
  H  H23  1  0.67163687  0.78516394  0.66619892  1
  H  H24  1  0.60446988  0.66027515  0.60965666  1
  H  H25  1  0.34349547  0.78607086  0.34143756  1
  H  H26  1  0.40032704  0.66111308  0.40747588  1
  H  H27  1  0.01158648  0.62377061  0.99936845  1
  H  H28  1  0.17157297  0.71473009  0.83382642  1
  H  H29  1  0.10441377  0.83961291  0.89042056  1
  H  H30  1  0.84332053  0.71380972  0.15846031  1
  H  H31  1  0.90019685  0.83877963  0.09250385  1
  Sr  Sr32  1  0.50010396  0.99991826  0.99802845  1
  Sr  Sr33  1  0.00011882  0.50010908  0.50200171  1
  Pb  Pb34  1  0.00029730  0.00011793  0.49785402  1
  Pb  Pb35  1  0.50027493  0.49991141  0.00214750  1
  I  I36  1  0.49731084  0.25097156  0.99267970  1
  I  I37  1  0.19005138  0.98213873  0.19040925  1
  I  I38  1  0.69066305  0.02464045  0.30893951  1
  I  I39  1  0.99733727  0.24906164  0.50737052  1
  I  I40  1  0.30771343  0.01791392  0.68820459  1
  I  I41  1  0.81102777  0.97538280  0.80712498  1
  I  I42  1  0.50268442  0.74897431  0.00730310  1
  I  I43  1  0.69014829  0.51782163  0.30951377  1
  I  I44  1  0.19068990  0.47541344  0.19112593  1
  I  I45  1  0.00273151  0.75104308  0.49264590  1
  I  I46  1  0.31100943  0.52463266  0.69291387  1
  I  I47  1  0.80761834  0.48208884  0.81173667  1
