# generated using pymatgen
data_SrHgH10C2(I3N2)2
_symmetry_space_group_name_H-M   'P 1'
_cell_length_a   8.71794271
_cell_length_b   12.09989091
_cell_length_c   8.71257621
_cell_angle_alpha   90.03784693
_cell_angle_beta   90.00053648
_cell_angle_gamma   89.99772791
_symmetry_Int_Tables_number   1
_chemical_formula_structural   SrHgH10C2(I3N2)2
_chemical_formula_sum   'Sr2 Hg2 H20 C4 I12 N8'
_cell_volume   919.05596939
_cell_formula_units_Z   2
loop_
 _symmetry_equiv_pos_site_id
 _symmetry_equiv_pos_as_xyz
  1  'x, y, z'
loop_
 _atom_site_type_symbol
 _atom_site_label
 _atom_site_symmetry_multiplicity
 _atom_site_fract_x
 _atom_site_fract_y
 _atom_site_fract_z
 _atom_site_occupancy
  C  C0  1  0.49293646  0.28906351  0.49629998  1
  C  C1  1  0.99300825  0.21092135  0.00371950  1
  C  C2  1  0.50706872  0.78908007  0.50381595  1
  C  C3  1  0.00699492  0.71092804  0.99615014  1
  N  N4  1  0.58984004  0.23986039  0.58913860  1
  N  N5  1  0.39944302  0.23936818  0.40041513  1
  N  N6  1  0.08994118  0.26012537  0.91092617  1
  N  N7  1  0.89949107  0.26061565  0.09958957  1
  N  N8  1  0.60026583  0.73942044  0.59987984  1
  N  N9  1  0.41035579  0.73984340  0.41067358  1
  N  N10  1  0.10021330  0.76059377  0.90012466  1
  N  N11  1  0.91024849  0.76015893  0.08927393  1
  H  H12  1  0.48947208  0.37912139  0.49936050  1
  H  H13  1  0.65687104  0.28662928  0.66004419  1
  H  H14  1  0.60300177  0.15612656  0.59316658  1
  H  H15  1  0.32953203  0.28626230  0.33236097  1
  H  H16  1  0.39189859  0.15544943  0.39054207  1
  H  H17  1  0.98953664  0.12086374  0.00063514  1
  H  H18  1  0.15699970  0.21335952  0.84004000  1
  H  H19  1  0.10313288  0.34385587  0.90694303  1
  H  H20  1  0.82955144  0.21371836  0.16761083  1
  H  H21  1  0.89194822  0.34453340  0.10947768  1
  H  H22  1  0.51061234  0.87913416  0.50079970  1
  H  H23  1  0.67170906  0.78632483  0.66640693  1
  H  H24  1  0.60465722  0.65562936  0.61282755  1
  H  H25  1  0.34187206  0.78659327  0.34123273  1
  H  H26  1  0.40014758  0.65598051  0.40359246  1
  H  H27  1  0.01053151  0.62086983  0.99915977  1
  H  H28  1  0.17167935  0.71368461  0.83361428  1
  H  H29  1  0.10460877  0.84437505  0.88719268  1
  H  H30  1  0.84173056  0.71341087  0.15867418  1
  H  H31  1  0.90001252  0.84402674  0.09634343  1
  Sr  Sr32  1  0.49999351  0.99990190  0.99852146  1
  Sr  Sr33  1  -0.00000834  0.50012808  0.50149959  1
  Hg  Hg34  1  0.00120486  0.00014642  0.49802976  1
  Hg  Hg35  1  0.50119300  0.49988274  0.00198028  1
  I  I36  1  0.49693987  0.26275051  0.99277132  1
  I  I37  1  0.19600399  0.98650184  0.20219998  1
  I  I38  1  0.70329879  0.01883405  0.30282577  1
  I  I39  1  0.99690009  0.23727191  0.50728731  1
  I  I40  1  0.29647949  0.01438177  0.69454012  1
  I  I41  1  0.80443267  0.98038203  0.79541639  1
  I  I42  1  0.50202507  0.73717225  0.00703038  1
  I  I43  1  0.69598555  0.51348259  0.29781501  1
  I  I44  1  0.20327943  0.48119845  0.19717423  1
  I  I45  1  0.00206260  0.76285475  0.49292527  1
  I  I46  1  0.30444826  0.51964718  0.70458416  1
  I  I47  1  0.79646807  0.48559834  0.80547198  1
