# generated using pymatgen
data_SrH10PtC2(I3N2)2
_symmetry_space_group_name_H-M   'P 1'
_cell_length_a   8.60530620
_cell_length_b   11.42784221
_cell_length_c   9.14914853
_cell_angle_alpha   90.41932001
_cell_angle_beta   89.98142032
_cell_angle_gamma   89.98596066
_symmetry_Int_Tables_number   1
_chemical_formula_structural   SrH10PtC2(I3N2)2
_chemical_formula_sum   'Sr2 H20 Pt2 C4 I12 N8'
_cell_volume   899.70384170
_cell_formula_units_Z   2
loop_
 _symmetry_equiv_pos_site_id
 _symmetry_equiv_pos_as_xyz
  1  'x, y, z'
loop_
 _atom_site_type_symbol
 _atom_site_label
 _atom_site_symmetry_multiplicity
 _atom_site_fract_x
 _atom_site_fract_y
 _atom_site_fract_z
 _atom_site_occupancy
  C  C0  1  0.48126736  0.28779986  0.48180800  1
  C  C1  1  0.98164663  0.21224528  0.01794501  1
  C  C2  1  0.51319430  0.79370425  0.51958029  1
  C  C3  1  0.01298520  0.70626854  0.98048250  1
  N  N4  1  0.56407733  0.24196925  0.58707669  1
  N  N5  1  0.39567065  0.22964305  0.38674286  1
  N  N6  1  0.06465092  0.25818759  0.91287904  1
  N  N7  1  0.89628673  0.27033232  0.11336909  1
  N  N8  1  0.59854853  0.73496556  0.61216008  1
  N  N9  1  0.42983673  0.74852586  0.41261562  1
  N  N10  1  0.09813055  0.76495180  0.88766671  1
  N  N11  1  0.92952986  0.75152995  0.08740583  1
  H  H12  1  0.48540713  0.38275716  0.47076664  1
  H  H13  1  0.62591127  0.29588276  0.65545764  1
  H  H14  1  0.57136099  0.15410770  0.60589986  1
  H  H15  1  0.33837590  0.27516490  0.30749470  1
  H  H16  1  0.37483497  0.14177089  0.39214255  1
  H  H17  1  0.98532938  0.11723499  0.02847271  1
  H  H18  1  0.12629116  0.20431059  0.84424456  1
  H  H19  1  0.07236735  0.34608051  0.89450307  1
  H  H20  1  0.83876740  0.22471349  0.19241066  1
  H  H21  1  0.87584694  0.35829111  0.10844021  1
  H  H22  1  0.51088076  0.88857564  0.53355259  1
  H  H23  1  0.66110284  0.78114045  0.68872071  1
  H  H24  1  0.60713371  0.64577450  0.61143545  1
  H  H25  1  0.36294754  0.80180700  0.34877207  1
  H  H26  1  0.43210975  0.66131067  0.38780605  1
  H  H27  1  0.01094002  0.61136924  0.96678502  1
  H  H28  1  0.16077933  0.71873591  0.81117146  1
  H  H29  1  0.10642914  0.85415269  0.88813035  1
  H  H30  1  0.86288901  0.69825079  0.15150521  1
  H  H31  1  0.93161874  0.83878265  0.11200972  1
  Sr  Sr32  1  0.54740019  0.98796782  0.05144178  1
  Sr  Sr33  1  0.04736862  0.51190029  0.44896756  1
  Pt  Pt34  1  0.01245319  0.01677652  0.49707402  1
  Pt  Pt35  1  0.51251106  0.48321959  0.00300239  1
  I  I36  1  0.48128584  0.25581876  0.97522063  1
  I  I37  1  0.21618170  0.98025174  0.17986853  1
  I  I38  1  0.75413862  0.01642852  0.33372566  1
  I  I39  1  0.98079273  0.24413325  0.52506701  1
  I  I40  1  0.25366529  0.02272176  0.67460150  1
  I  I41  1  0.77045535  0.98618932  0.79214702  1
  I  I42  1  0.51058767  0.71423759  0.00326004  1
  I  I43  1  0.71644352  0.51978271  0.31992072  1
  I  I44  1  0.25413836  0.48361606  0.16645079  1
  I  I45  1  0.01094104  0.78574100  0.49650805  1
  I  I46  1  0.27065552  0.51369923  0.70791959  1
  I  I47  1  0.75385252  0.47724186  0.82547651  1
