# generated using pymatgen
data_SrH10OsC2(I3N2)2
_symmetry_space_group_name_H-M   'P 1'
_cell_length_a   8.41031846
_cell_length_b   11.71447343
_cell_length_c   8.40112191
_cell_angle_alpha   90.05428520
_cell_angle_beta   89.99983161
_cell_angle_gamma   89.99711010
_symmetry_Int_Tables_number   1
_chemical_formula_structural   SrH10OsC2(I3N2)2
_chemical_formula_sum   'Sr2 H20 Os2 C4 I12 N8'
_cell_volume   827.69875952
_cell_formula_units_Z   2
loop_
 _symmetry_equiv_pos_site_id
 _symmetry_equiv_pos_as_xyz
  1  'x, y, z'
loop_
 _atom_site_type_symbol
 _atom_site_label
 _atom_site_symmetry_multiplicity
 _atom_site_fract_x
 _atom_site_fract_y
 _atom_site_fract_z
 _atom_site_occupancy
  C  C0  1  0.49361887  0.28936783  0.49640517  1
  C  C1  1  0.99368041  0.21062026  0.00360773  1
  C  C2  1  0.50632429  0.78937559  0.50398574  1
  C  C3  1  0.00624779  0.71063350  0.99599413  1
  N  N4  1  0.59378087  0.23848529  0.59248063  1
  N  N5  1  0.39718019  0.23785442  0.39725514  1
  N  N6  1  0.09387766  0.26150530  0.90757043  1
  N  N7  1  0.89722981  0.26213083  0.10275018  1
  N  N8  1  0.60280140  0.73790595  0.60307759  1
  N  N9  1  0.40643685  0.73844518  0.40761430  1
  N  N10  1  0.10274404  0.76211201  0.89693345  1
  N  N11  1  0.90633105  0.76155517  0.09234952  1
  H  H12  1  0.48994578  0.38234394  0.49945512  1
  H  H13  1  0.66256781  0.28684223  0.66668077  1
  H  H14  1  0.60937820  0.15209934  0.59559437  1
  H  H15  1  0.32514285  0.28622334  0.32618458  1
  H  H16  1  0.38682142  0.15118224  0.38871736  1
  H  H17  1  0.98999678  0.11764520  0.00052232  1
  H  H18  1  0.16267714  0.21315047  0.83337769  1
  H  H19  1  0.10949869  0.34788777  0.90450206  1
  H  H20  1  0.82516691  0.21376064  0.17379416  1
  H  H21  1  0.88687947  0.34880400  0.11130900  1
  H  H22  1  0.50979479  0.88235902  0.50127381  1
  H  H23  1  0.67741235  0.78631286  0.67153194  1
  H  H24  1  0.60632468  0.65145359  0.61830039  1
  H  H25  1  0.33503555  0.78676776  0.33602586  1
  H  H26  1  0.39776293  0.65182055  0.39734002  1
  H  H27  1  0.00972519  0.61764964  0.99868937  1
  H  H28  1  0.17737437  0.71370702  0.82848926  1
  H  H29  1  0.10627109  0.84856476  0.88172573  1
  H  H30  1  0.83490734  0.71322955  0.16390497  1
  H  H31  1  0.89763678  0.84818006  0.10262109  1
  Sr  Sr32  1  0.49876172  0.99998088  0.99842136  1
  Sr  Sr33  1  0.99876084  0.50003448  0.50159278  1
  Os  Os34  1  0.00008104  0.00001043  0.49862601  1
  Os  Os35  1  0.50007451  0.50000238  0.00137911  1
  I  I36  1  0.49776551  0.26786536  0.99586218  1
  I  I37  1  0.18961311  0.99133818  0.23389911  1
  I  I38  1  0.73625232  0.01012619  0.30780563  1
  I  I39  1  0.99771931  0.23214889  0.50418978  1
  I  I40  1  0.26494831  0.01002776  0.68767437  1
  I  I41  1  0.81008363  0.98850097  0.76306085  1
  I  I42  1  0.50222950  0.73215496  0.00519942  1
  I  I43  1  0.68960304  0.50866287  0.26611002  1
  I  I44  1  0.23623591  0.48990360  0.19219073  1
  I  I45  1  0.00228633  0.76785802  0.49476034  1
  I  I46  1  0.31008961  0.51151483  0.73693605  1
  I  I47  1  0.76494132  0.48995780  0.81233313  1
