# generated using pymatgen
data_BaSrH10C2(I3N2)2
_symmetry_space_group_name_H-M   'P 1'
_cell_length_a   8.87313308
_cell_length_b   13.04526500
_cell_length_c   8.82988059
_cell_angle_alpha   90.02898939
_cell_angle_beta   89.99623009
_cell_angle_gamma   89.99657640
_symmetry_Int_Tables_number   1
_chemical_formula_structural   BaSrH10C2(I3N2)2
_chemical_formula_sum   'Ba2 Sr2 H20 C4 I12 N8'
_cell_volume   1022.07949195
_cell_formula_units_Z   2
loop_
 _symmetry_equiv_pos_site_id
 _symmetry_equiv_pos_as_xyz
  1  'x, y, z'
loop_
 _atom_site_type_symbol
 _atom_site_label
 _atom_site_symmetry_multiplicity
 _atom_site_fract_x
 _atom_site_fract_y
 _atom_site_fract_z
 _atom_site_occupancy
  C  C0  1  0.49844240  0.30600040  0.50615944  1
  C  C1  1  0.99840622  0.19411233  0.99376746  1
  C  C2  1  0.50125343  0.80592127  0.49360520  1
  C  C3  1  0.00113908  0.69397782  0.00641665  1
  N  N4  1  0.60670504  0.26214749  0.58414540  1
  N  N5  1  0.42428321  0.26283228  0.39424515  1
  N  N6  1  0.10674466  0.23796144  0.91587695  1
  N  N7  1  0.92424952  0.23724126  0.10573738  1
  N  N8  1  0.57533691  0.76277186  0.60547402  1
  N  N9  1  0.39290954  0.76204857  0.41559438  1
  N  N10  1  0.07531007  0.73720660  0.89466676  1
  N  N11  1  0.89279716  0.73782097  0.08449767  1
  H  H12  1  0.46648822  0.38405391  0.53784691  1
  H  H13  1  0.65940224  0.30154999  0.66895283  1
  H  H14  1  0.64438542  0.19009389  0.55977205  1
  H  H15  1  0.34375416  0.30392396  0.33785476  1
  H  H16  1  0.45063224  0.19122310  0.35532375  1
  H  H17  1  0.96637825  0.11610035  0.96195492  1
  H  H18  1  0.15942292  0.19858977  0.83101298  1
  H  H19  1  0.14448942  0.30997884  0.94036560  1
  H  H20  1  0.84364137  0.19616106  0.16203046  1
  H  H21  1  0.95063664  0.30881192  0.14476863  1
  H  H22  1  0.53317448  0.88395279  0.46186250  1
  H  H23  1  0.65465476  0.80410843  0.66327106  1
  H  H24  1  0.54948526  0.69097551  0.64355360  1
  H  H25  1  0.34155030  0.80119450  0.32975818  1
  H  H26  1  0.35396081  0.69040920  0.44103132  1
  H  H27  1  0.03297732  0.61590185  0.03799057  1
  H  H28  1  0.15462181  0.69588896  0.83680216  1
  H  H29  1  0.04955024  0.80905907  0.85674012  1
  H  H30  1  0.84133195  0.69858866  0.17018714  1
  H  H31  1  0.85390147  0.80949370  0.05920003  1
  Sr  Sr32  1  0.49205633  0.00244391  0.98774572  1
  Sr  Sr33  1  0.99216081  0.49754978  0.51217999  1
  Ba  Ba34  1  0.00924988  0.99759184  0.48735857  1
  Ba  Ba35  1  0.50933018  0.50239532  0.01253593  1
  I  I36  1  0.50580771  0.24715017  0.98815528  1
  I  I37  1  0.17632581  0.96725590  0.15329790  1
  I  I38  1  0.67865583  0.03933810  0.30228523  1
  I  I39  1  0.00568234  0.25283929  0.51182006  1
  I  I40  1  0.33615676  0.03375705  0.66585501  1
  I  I41  1  0.81040580  0.96074257  0.81344121  1
  I  I42  1  0.49509029  0.75761150  0.01042088  1
  I  I43  1  0.67648172  0.53268710  0.34654465  1
  I  I44  1  0.17884202  0.46069093  0.19768344  1
  I  I45  1  0.99510855  0.74236354  0.48972421  1
  I  I46  1  0.31044258  0.53928068  0.68655436  1
  I  I47  1  0.83620624  0.46626353  0.83403627  1
