# generated using pymatgen
data_SrSnH10C2(I3N2)2
_symmetry_space_group_name_H-M   'P 1'
_cell_length_a   8.74077459
_cell_length_b   12.47762343
_cell_length_c   8.73472355
_cell_angle_alpha   90.00678452
_cell_angle_beta   90.00027450
_cell_angle_gamma   89.99768282
_symmetry_Int_Tables_number   1
_chemical_formula_structural   SrSnH10C2(I3N2)2
_chemical_formula_sum   'Sr2 Sn2 H20 C4 I12 N8'
_cell_volume   952.64470144
_cell_formula_units_Z   2
loop_
 _symmetry_equiv_pos_site_id
 _symmetry_equiv_pos_as_xyz
  1  'x, y, z'
loop_
 _atom_site_type_symbol
 _atom_site_label
 _atom_site_symmetry_multiplicity
 _atom_site_fract_x
 _atom_site_fract_y
 _atom_site_fract_z
 _atom_site_occupancy
  C  C0  1  0.49270683  0.28884144  0.49659724  1
  C  C1  1  0.99279097  0.21114480  0.00342780  1
  C  C2  1  0.50730878  0.78885340  0.50339097  1
  C  C3  1  0.00721134  0.71115437  0.99656734  1
  N  N4  1  0.58906802  0.24059828  0.58905373  1
  N  N5  1  0.39959272  0.24049279  0.40096379  1
  N  N6  1  0.08919255  0.25938723  0.91102136  1
  N  N7  1  0.89963804  0.25948909  0.09903397  1
  N  N8  1  0.60043485  0.74051262  0.59901073  1
  N  N9  1  0.41091930  0.74060549  0.41096105  1
  N  N10  1  0.10037658  0.75949742  0.90099396  1
  N  N11  1  0.91078107  0.75940051  0.08896234  1
  H  H12  1  0.48948449  0.37623250  0.49978564  1
  H  H13  1  0.65711186  0.28512224  0.65948695  1
  H  H14  1  0.60000976  0.15918497  0.59320564  1
  H  H15  1  0.32869480  0.28540690  0.33367972  1
  H  H16  1  0.39424191  0.15908387  0.39037203  1
  H  H17  1  0.98956358  0.12375442  0.00022074  1
  H  H18  1  0.15727902  0.21485851  0.84062897  1
  H  H19  1  0.10017256  0.34079779  0.90690801  1
  H  H20  1  0.82871298  0.21457017  0.16627884  1
  H  H21  1  0.89428098  0.34089741  0.10964065  1
  H  H22  1  0.51053244  0.87624014  0.50017716  1
  H  H23  1  0.67142087  0.78543714  0.66620971  1
  H  H24  1  0.60547689  0.65910708  0.60994486  1
  H  H25  1  0.34281922  0.78512458  0.34059094  1
  H  H26  1  0.40029029  0.65918806  0.40650497  1
  H  H27  1  0.01043447  0.62375946  0.99976686  1
  H  H28  1  0.17139154  0.71458530  0.83381674  1
  H  H29  1  0.10541143  0.84090772  0.89008756  1
  H  H30  1  0.84263438  0.71487653  0.15928100  1
  H  H31  1  0.90013088  0.84080663  0.09339924  1
  Sr  Sr32  1  0.50046317  0.99985856  0.99914540  1
  Sr  Sr33  1  0.00047085  0.50017959  0.50088875  1
  Sn  Sn34  1  0.00020385  0.00019581  0.49908700  1
  Sn  Sn35  1  0.50019830  0.49984343  0.00093411  1
  I  I36  1  0.49773162  0.25308018  0.99244611  1
  I  I37  1  0.19273773  0.98386892  0.19776669  1
  I  I38  1  0.69578576  0.02400169  0.30849441  1
  I  I39  1  0.99772533  0.24695232  0.50763922  1
  I  I40  1  0.30126843  0.01615106  0.69175251  1
  I  I41  1  0.80949735  0.97602569  0.80323201  1
  I  I42  1  0.50228093  0.74672645  0.00753786  1
  I  I43  1  0.69270960  0.51607464  0.30227718  1
  I  I44  1  0.19575988  0.47603126  0.19150837  1
  I  I45  1  0.00229038  0.75330537  0.49238206  1
  I  I46  1  0.30952319  0.52402627  0.69676757  1
  I  I47  1  0.80125759  0.48382288  0.80827497  1
