# generated using pymatgen
data_SrCdH10C2(I3N2)2
_symmetry_space_group_name_H-M   'P 1'
_cell_length_a   8.66707182
_cell_length_b   12.09589541
_cell_length_c   8.66099947
_cell_angle_alpha   90.03158080
_cell_angle_beta   90.00022623
_cell_angle_gamma   89.99736133
_symmetry_Int_Tables_number   1
_chemical_formula_structural   SrCdH10C2(I3N2)2
_chemical_formula_sum   'Sr2 Cd2 H20 C4 I12 N8'
_cell_volume   907.98435048
_cell_formula_units_Z   2
loop_
 _symmetry_equiv_pos_site_id
 _symmetry_equiv_pos_as_xyz
  1  'x, y, z'
loop_
 _atom_site_type_symbol
 _atom_site_label
 _atom_site_symmetry_multiplicity
 _atom_site_fract_x
 _atom_site_fract_y
 _atom_site_fract_z
 _atom_site_occupancy
  C  C0  1  0.49310388  0.28858859  0.49619872  1
  C  C1  1  0.99316549  0.21139801  0.00381585  1
  C  C2  1  0.50679965  0.78860325  0.50397576  1
  C  C3  1  0.00672734  0.71140644  0.99600317  1
  N  N4  1  0.59053003  0.23950265  0.58978633  1
  N  N5  1  0.39930637  0.23884596  0.39966846  1
  N  N6  1  0.09062200  0.26048594  0.91026716  1
  N  N7  1  0.89935079  0.26113925  0.10033478  1
  N  N8  1  0.60061407  0.73891319  0.60051047  1
  N  N9  1  0.40941146  0.73946135  0.41037432  1
  N  N10  1  0.10056525  0.76109885  0.89949678  1
  N  N11  1  0.90931522  0.76054352  0.08958583  1
  H  H12  1  0.48954642  0.37868669  0.49914508  1
  H  H13  1  0.65731631  0.28643047  0.66145714  1
  H  H14  1  0.60482035  0.15578118  0.59365724  1
  H  H15  1  0.32947625  0.28580172  0.33085105  1
  H  H16  1  0.39059398  0.15491135  0.39034008  1
  H  H17  1  0.98959866  0.12130068  0.00084324  1
  H  H18  1  0.15742926  0.21355998  0.83861013  1
  H  H19  1  0.10493848  0.34420537  0.90644395  1
  H  H20  1  0.82949831  0.21418370  0.16912434  1
  H  H21  1  0.89064805  0.34507346  0.10968065  1
  H  H22  1  0.51037550  0.87869884  0.50105051  1
  H  H23  1  0.67284908  0.78588142  0.66686630  1
  H  H24  1  0.60468367  0.65513983  0.61445980  1
  H  H25  1  0.34032803  0.78636929  0.34097455  1
  H  H26  1  0.39968064  0.65557470  0.40190128  1
  H  H27  1  0.01030405  0.62131057  0.99891336  1
  H  H28  1  0.17281766  0.71413115  0.83315241  1
  H  H29  1  0.10463825  0.84487289  0.88556242  1
  H  H30  1  0.84020535  0.71363280  0.15894833  1
  H  H31  1  0.89955825  0.84443152  0.09805391  1
  Sr  Sr32  1  0.49963004  0.99997265  0.99826712  1
  Sr  Sr33  1  0.99962609  0.50004314  0.50174920  1
  Cd  Cd34  1  0.00111742  0.00004758  0.49826452  1
  Cd  Cd35  1  0.50110751  0.49996777  0.00174118  1
  I  I36  1  0.49733962  0.26077049  0.99402413  1
  I  I37  1  0.19606840  0.98878256  0.20919637  1
  I  I38  1  0.71153914  0.01518289  0.30163917  1
  I  I39  1  0.99729610  0.23924219  0.50601695  1
  I  I40  1  0.28934676  0.01228736  0.69420799  1
  I  I41  1  0.80365367  0.98382887  0.78715434  1
  I  I42  1  0.50192520  0.73924733  0.00631801  1
  I  I43  1  0.69605608  0.51122104  0.29081247  1
  I  I44  1  0.21152356  0.48484596  0.19835775  1
  I  I45  1  0.00197249  0.76076889  0.49365398  1
  I  I46  1  0.30366249  0.51618863  0.71284611  1
  I  I47  1  0.78933668  0.48770099  0.80580207  1
