# generated using pymatgen
data_SrH10RuC2(I3N2)2
_symmetry_space_group_name_H-M   'P 1'
_cell_length_a   8.42395471
_cell_length_b   11.74124988
_cell_length_c   8.41491493
_cell_angle_alpha   90.06388971
_cell_angle_beta   89.99867363
_cell_angle_gamma   89.99747336
_symmetry_Int_Tables_number   1
_chemical_formula_structural   SrH10RuC2(I3N2)2
_chemical_formula_sum   'Sr2 H20 Ru2 C4 I12 N8'
_cell_volume   832.29984439
_cell_formula_units_Z   2
loop_
 _symmetry_equiv_pos_site_id
 _symmetry_equiv_pos_as_xyz
  1  'x, y, z'
loop_
 _atom_site_type_symbol
 _atom_site_label
 _atom_site_symmetry_multiplicity
 _atom_site_fract_x
 _atom_site_fract_y
 _atom_site_fract_z
 _atom_site_occupancy
  C  C0  1  0.49365845  0.28925786  0.49640829  1
  C  C1  1  0.99372187  0.21072762  0.00360682  1
  C  C2  1  0.50630271  0.78926732  0.50399904  1
  C  C3  1  0.00622670  0.71074828  0.99599153  1
  N  N4  1  0.59352768  0.23850510  0.59246429  1
  N  N5  1  0.39748226  0.23784482  0.39735583  1
  N  N6  1  0.09363148  0.26148443  0.90758378  1
  N  N7  1  0.89753219  0.26213749  0.10264981  1
  N  N8  1  0.60269868  0.73788116  0.60279900  1
  N  N9  1  0.40645156  0.73846530  0.40788747  1
  N  N10  1  0.10265878  0.76213029  0.89720397  1
  N  N11  1  0.90636518  0.76153911  0.09206896  1
  H  H12  1  0.49005652  0.38202836  0.49942142  1
  H  H13  1  0.66204968  0.28674688  0.66668510  1
  H  H14  1  0.60917419  0.15231879  0.59550387  1
  H  H15  1  0.32573492  0.28608988  0.32623838  1
  H  H16  1  0.38702158  0.15138545  0.38891620  1
  H  H17  1  0.99010499  0.11795730  0.00056278  1
  H  H18  1  0.16217128  0.21324036  0.83336749  1
  H  H19  1  0.10930391  0.34766973  0.90458773  1
  H  H20  1  0.82576403  0.21389397  0.17373919  1
  H  H21  1  0.88708690  0.34859596  0.11110683  1
  H  H22  1  0.50978912  0.88203315  0.50130018  1
  H  H23  1  0.67734961  0.78616375  0.67101427  1
  H  H24  1  0.60608119  0.65164732  0.61811947  1
  H  H25  1  0.33502796  0.78668003  0.33660602  1
  H  H26  1  0.39781583  0.65205133  0.39755482  1
  H  H27  1  0.00973294  0.61797524  0.99866074  1
  H  H28  1  0.17732777  0.71385346  0.82899908  1
  H  H29  1  0.10603731  0.84837439  0.88190326  1
  H  H30  1  0.83491515  0.71332238  0.16332144  1
  H  H31  1  0.89770090  0.84795338  0.10240427  1
  Sr  Sr32  1  0.49884787  0.99998018  0.99835570  1
  Sr  Sr33  1  0.99884827  0.50003610  0.50166341  1
  Ru  Ru34  1  0.00011193  0.00000947  0.49862868  1
  Ru  Ru35  1  0.50010803  0.50000409  0.00138101  1
  I  I36  1  0.49777939  0.26769088  0.99593274  1
  I  I37  1  0.19078730  0.99105426  0.23324640  1
  I  I38  1  0.73552703  0.01036888  0.30664306  1
  I  I39  1  0.99773332  0.23232446  0.50412340  1
  I  I40  1  0.26557482  0.01024419  0.68882166  1
  I  I41  1  0.80893757  0.98832185  0.76374323  1
  I  I42  1  0.50220417  0.73232816  0.00515749  1
  I  I43  1  0.69077764  0.50894910  0.26676635  1
  I  I44  1  0.23550883  0.48965764  0.19335548  1
  I  I45  1  0.00224925  0.76768533  0.49480541  1
  I  I46  1  0.30894833  0.51169199  0.73625874  1
  I  I47  1  0.76557228  0.48974650  0.81119066  1
