# generated using pymatgen
data_YTlH10C2(I3N2)2
_symmetry_space_group_name_H-M   'P 1'
_cell_length_a   8.74873600
_cell_length_b   12.48788345
_cell_length_c   8.74222760
_cell_angle_alpha   89.97429071
_cell_angle_beta   90.00064950
_cell_angle_gamma   89.99908735
_symmetry_Int_Tables_number   1
_chemical_formula_structural   YTlH10C2(I3N2)2
_chemical_formula_sum   'Y2 Tl2 H20 C4 I12 N8'
_cell_volume   955.11620548
_cell_formula_units_Z   2
loop_
 _symmetry_equiv_pos_site_id
 _symmetry_equiv_pos_as_xyz
  1  'x, y, z'
loop_
 _atom_site_type_symbol
 _atom_site_label
 _atom_site_symmetry_multiplicity
 _atom_site_fract_x
 _atom_site_fract_y
 _atom_site_fract_z
 _atom_site_occupancy
  C  C0  1  0.49291743  0.28858366  0.49624896  1
  C  C1  1  0.99299223  0.21140248  0.00377783  1
  C  C2  1  0.50730399  0.78861288  0.50347684  1
  C  C3  1  0.00722423  0.71139168  0.99648497  1
  N  N4  1  0.58986190  0.24056626  0.58818078  1
  N  N5  1  0.39930042  0.24035624  0.40123828  1
  N  N6  1  0.08997205  0.25942334  0.91188546  1
  N  N7  1  0.89934036  0.25962258  0.09876826  1
  N  N8  1  0.59967265  0.74033184  0.59972863  1
  N  N9  1  0.41140288  0.74064230  0.41049152  1
  N  N10  1  0.09963104  0.75966499  0.90026539  1
  N  N11  1  0.91128554  0.75936931  0.08943725  1
  H  H12  1  0.48958674  0.37585625  0.49939560  1
  H  H13  1  0.65805654  0.28533006  0.65778066  1
  H  H14  1  0.59896133  0.15921102  0.59512715  1
  H  H15  1  0.32798057  0.28546439  0.33493698  1
  H  H16  1  0.39563744  0.15915176  0.38838626  1
  H  H17  1  0.98965736  0.12412973  0.00061645  1
  H  H18  1  0.15820155  0.21466055  0.84232050  1
  H  H19  1  0.09910453  0.34077880  0.90498068  1
  H  H20  1  0.82799966  0.21451661  0.16503288  1
  H  H21  1  0.89568461  0.34083136  0.11162882  1
  H  H22  1  0.51071379  0.87588161  0.50028646  1
  H  H23  1  0.66970124  0.78539426  0.66739474  1
  H  H24  1  0.60704202  0.65902331  0.60888669  1
  H  H25  1  0.34433512  0.78545103  0.33980690  1
  H  H26  1  0.39823675  0.65941858  0.40766480  1
  H  H27  1  0.01062833  0.62412375  0.99967202  1
  H  H28  1  0.16967582  0.71462392  0.83262903  1
  H  H29  1  0.10699416  0.84099782  0.89112488  1
  H  H30  1  0.84417340  0.71454467  0.16008579  1
  H  H31  1  0.89809251  0.84057623  0.09225045  1
  Y  Y32  1  0.49942015  0.99990622  0.99900983  1
  Y  Y33  1  0.99941999  0.50011789  0.50101693  1
  Tl  Tl34  1  0.99954527  0.00015079  0.49873249  1
  Tl  Tl35  1  0.49953753  0.49987997  0.00128945  1
  I  I36  1  0.49837087  0.23745457  0.99258037  1
  I  I37  1  0.20803684  0.98514032  0.18134525  1
  I  I38  1  0.68089997  0.02155542  0.29170430  1
  I  I39  1  0.99836030  0.26256934  0.50747735  1
  I  I40  1  0.31774485  0.01348167  0.70682500  1
  I  I41  1  0.79277299  0.97971826  0.81807446  1
  I  I42  1  0.50255312  0.76242470  0.00723591  1
  I  I43  1  0.70801567  0.51482829  0.31869169  1
  I  I44  1  0.18087795  0.47846340  0.20830109  1
  I  I45  1  0.00257241  0.73759597  0.49269851  1
  I  I46  1  0.29278408  0.52032899  0.68193095  1
  I  I47  1  0.81773911  0.48651389  0.79319925  1
