# generated using pymatgen
data_YH10AuC2(I3N2)2
_symmetry_space_group_name_H-M   'P 1'
_cell_length_a   8.81495825
_cell_length_b   11.36987586
_cell_length_c   8.80880284
_cell_angle_alpha   89.94046127
_cell_angle_beta   89.99989558
_cell_angle_gamma   90.00071153
_symmetry_Int_Tables_number   1
_chemical_formula_structural   YH10AuC2(I3N2)2
_chemical_formula_sum   'Y2 H20 Au2 C4 I12 N8'
_cell_volume   882.86162009
_cell_formula_units_Z   2
loop_
 _symmetry_equiv_pos_site_id
 _symmetry_equiv_pos_as_xyz
  1  'x, y, z'
loop_
 _atom_site_type_symbol
 _atom_site_label
 _atom_site_symmetry_multiplicity
 _atom_site_fract_x
 _atom_site_fract_y
 _atom_site_fract_z
 _atom_site_occupancy
  C  C0  1  0.49456982  0.28938379  0.49602983  1
  C  C1  1  0.99462604  0.21061041  0.00397736  1
  C  C2  1  0.50594659  0.78941143  0.50359047  1
  C  C3  1  0.00589284  0.71059170  0.99640242  1
  N  N4  1  0.59148710  0.23780540  0.58758220  1
  N  N5  1  0.40091844  0.23657503  0.40251343  1
  N  N6  1  0.09156560  0.26219463  0.91245213  1
  N  N7  1  0.90096681  0.26341259  0.09749251  1
  N  N8  1  0.59699548  0.73659043  0.59976067  1
  N  N9  1  0.41110739  0.73785932  0.40998857  1
  N  N10  1  0.09695203  0.76341784  0.90024538  1
  N  N11  1  0.91102725  0.76213769  0.08998358  1
  H  H12  1  0.49120715  0.38521315  0.49807345  1
  H  H13  1  0.65841536  0.28876712  0.65589223  1
  H  H14  1  0.60372272  0.14873324  0.59586870  1
  H  H15  1  0.33083819  0.28717755  0.33657563  1
  H  H16  1  0.39378604  0.14743485  0.39028059  1
  H  H17  1  0.99124754  0.11478171  0.00191121  1
  H  H18  1  0.15850128  0.21123545  0.84414733  1
  H  H19  1  0.10382904  0.35126584  0.90419820  1
  H  H20  1  0.83087300  0.21280701  0.16341201  1
  H  H21  1  0.89385128  0.35255251  0.10974493  1
  H  H22  1  0.50984836  0.88522367  0.50091988  1
  H  H23  1  0.66598049  0.78713744  0.66676243  1
  H  H24  1  0.60425260  0.64744188  0.61199760  1
  H  H25  1  0.34527975  0.78887725  0.34053122  1
  H  H26  1  0.39747967  0.64883557  0.40324603  1
  H  H27  1  0.00980903  0.61477999  0.99907861  1
  H  H28  1  0.16595421  0.71288236  0.83325889  1
  H  H29  1  0.10419499  0.85257180  0.88800771  1
  H  H30  1  0.84518957  0.71110859  0.15942729  1
  H  H31  1  0.89737166  0.85115511  0.09671083  1
  Y  Y32  1  0.49891898  0.99992958  0.99808051  1
  Y  Y33  1  0.99891889  0.50008968  0.50193013  1
  Au  Au34  1  0.99921209  0.00010143  0.49729369  1
  Au  Au35  1  0.49919995  0.49991700  0.00272295  1
  I  I36  1  0.49800341  0.26523261  0.99546612  1
  I  I37  1  0.22444024  0.98710359  0.19803018  1
  I  I38  1  0.70012298  0.01317523  0.27276287  1
  I  I39  1  0.99795159  0.23478322  0.50457284  1
  I  I40  1  0.30052459  0.01253736  0.72244610  1
  I  I41  1  0.77454685  0.98715687  0.79827413  1
  I  I42  1  0.50241996  0.73468785  0.00382264  1
  I  I43  1  0.72443610  0.51289649  0.30197407  1
  I  I44  1  0.20011346  0.48682943  0.22723534  1
  I  I45  1  0.00246057  0.76532884  0.49614425  1
  I  I46  1  0.27454629  0.51285466  0.70173121  1
  I  I47  1  0.80051605  0.48746680  0.77755440  1
